206

C    6.27197    21.04617   15.84990 
C    5.49796    20.45101   14.87782 
C    5.58438    19.09859   14.63171 
C    6.46775    18.35197   15.38585 
C    6.54512    16.99906   15.11812 
C    7.45548    16.29525   15.89516 
C    8.23989    16.89944   16.87843 
C    8.15931    18.23688   17.14065 
C    7.25445    18.95769   16.37389 
C    7.15479    20.30732   16.60429 
C    5.77812    16.36644   14.12902 
C    4.91266    17.12903   13.39457 
C    4.82858    18.48300   13.65825 
C    3.95280    19.27263   12.91753 
N    3.87210    20.59159   13.16518 
C    4.61858    21.18660   14.11814 
C    5.98339    14.93803   13.95892 
C    4.93381    14.09812   13.40577 
C    5.37831    12.89966   12.79795 
C    6.70363    12.54574   12.76409 
C    7.09131    11.34531   12.16474 
C    6.20848    10.48536   11.59791 
C    4.86457    10.83897   11.63104 
C    4.45115    12.03067   12.22308 
C    3.11399    12.30532   12.23273 
C    2.69073    13.48887   12.83709 
C    3.60081    14.35121   13.40526 
C    1.35198    13.82026   12.87860 
N    0.45513    12.98285   12.32694 
C    0.84481    11.84327   11.74461 
C    2.19605    11.47159   11.68168 
C    2.59472    10.30287   11.09495 
C    3.93319    9.98512    11.07106 
H    6.20937    22.11388   16.05052 
H    7.62699    15.23932   15.78343 
H    8.94900    16.29994   17.46931 
H    8.74895    18.74231   17.88312 
H    7.78022    20.76929   17.37714 
H    4.30879    16.71505   12.59186 
H    3.36460    18.77895   12.16380 
H    4.57456    22.25010   14.34065 
H    6.91266    14.82813   13.32126 
H    6.19968    14.48782   14.97559 
H    7.46621    13.16270   13.20926 
H    8.14672    11.11887   12.16693 
H    6.49702    9.55581    11.13068 
H    3.22738    15.23951   13.88816 
H    1.03829    14.75673   13.35962 
H    0.17177    11.13197   11.28385 
H    1.87453    9.62022    10.64743 
H    4.27859    9.04939    10.60842 
C    5.18905    22.65547   9.44262  
C    3.99700    22.03112   9.73835  
C    3.50384    21.02690   8.93497  
C    4.23605    20.65995   7.82334  
C    3.72036    19.65644   7.02641  
C    4.48795    19.33229   5.91572  
C    5.69442    19.96636   5.61648  
C    6.20112    20.95697   6.40765  
C    5.44782    21.29518   7.52317  
C    5.92295    22.29456   8.33559  
C    2.50563    19.00929   7.29555  
C    1.79875    19.39325   8.40139  
C    2.30957    20.39530   9.20438  
C    1.60025    20.79794   10.33307 
N    2.08919    21.77711   11.11387 
C    3.25795    22.39248   10.84051 
C    2.09135    17.98252   6.35453  
C    1.20568    16.90778   6.77114  
C    0.45757    16.30584   5.73128  
C    0.58650    16.69189   4.42085  
C    -0.16381   16.05745   3.42834  
C    -1.03743   15.05390   3.69271  
C    -1.17039   14.65842   5.01866  
C    -0.43338   15.27461   6.02797  
C    -0.60361   14.82375   7.30519  
C    0.14190    15.42504   8.31900  
C    1.02207    16.44395   8.03293  
C    0.01348    15.01168   9.62913  
N    -0.84345   14.01562   9.91800  
C    -1.56481   13.42777   8.95692  
C    -1.46292   13.81992   7.61387  
C    -2.19278   13.21380   6.62949  
C    -2.04469   13.63361   5.32762  
H    5.58547    23.44945   10.07238 
H    4.19868    18.57954   5.20397  
H    6.26818    19.67547   4.72343  
H    7.12153    21.47489   6.21013  
H    6.87021    22.78678   8.08599  
H    0.83612    18.95921   8.65700  
H    0.67160    20.29337   10.53513 
H    3.67788    23.18661   11.45327 
H    1.61773    18.52830   5.48272  
H    3.01898    17.45401   5.97602  
H    1.27304    17.46690   4.12359  
H    -0.02194   16.40279   2.41553  
H    -1.62350   14.55757   2.93389  
H    1.60007    16.85942   8.84225  
H    0.60981    15.49739   10.41350 
H    -2.26959   12.62441   9.12759  
H    -2.88732   12.40675   6.85584  
H    -2.61759   13.15966   4.51763  
C    -1.60001   24.96715   11.51396 
C    -1.40353   23.70600   12.03275 
C    -2.42739   22.78530   12.06608 
C    -3.65864   23.15831   11.56467 
C    -4.67415   22.22328   11.61457 
C    -5.89461   22.65060   11.10883 
C    -6.09274   23.92867   10.58497 
C    -5.08582   24.84941   10.53643 
C    -3.85776   24.44067   11.03749 
C    -2.82521   25.34498   11.01342 
C    -4.50780   20.93585   12.14531 
C    -3.27913   20.59242   12.63765 
C    -2.25789   21.52223   12.58925 
C    -1.00164   21.18738   13.08815 
N    -0.00645   22.09050   13.04991 
C    -0.18237   23.32633   12.53884 
C    -5.67610   20.07186   12.13862 
C    -5.52958   18.62564   12.13340 
C    -6.63234   17.90613   12.65258 
C    -7.76879   18.53274   13.09838 
C    -8.83635   17.77776   13.58916 
C    -8.81359   16.42290   13.65273 
C    -7.66493   15.78360   13.20092 
C    -6.58581   16.51322   12.70622 
C    -5.49692   15.81790   12.26533 
C    -4.41883   16.54031   11.75445 
C    -4.45808   17.91514   11.69977 
C    -3.29103   15.89298   11.29310 
N    -3.24423   14.54934   11.34145 
C    -4.27038   13.84187   11.82737 
C    -5.43350   14.46302   12.30620 
C    -6.48654   13.74075   12.79456 
C    -7.60630   14.40339   13.24187 
H    -0.79623   25.70008   11.48384 
H    -6.77312   22.03013   11.09807 
H    -7.07940   24.22259   10.19577 
H    -5.19737   25.84496   10.14805 
H    -2.99637   26.34692   10.60268 
H    -3.08317   19.62494   13.09146 
H    -0.88096   20.19628   13.48934 
H    0.60324    24.07687   12.49453 
H    -6.29420   20.37268   13.03846 
H    -6.27883   20.29853   11.20673 
H    -7.87571   19.60404   13.06351 
H    -9.70415   18.32390   13.92654 
H    -9.63212   15.82945   14.03148 
H    -3.61558   18.43163   11.26948 
H    -2.45243   16.47958   10.89383 
H    -4.29052   12.76182   11.89294 
H    -6.45591   12.65341   12.83586 
H    -8.46770   13.84498   13.63567 
C    0.63578    22.81591   18.12611 
C    0.86885    21.77207   17.25760 
C    0.58128    20.47358   17.61583 
C    0.05154    20.24342   18.86999 
C    -0.22241   18.93367   19.21282 
C    -0.74272   18.75423   20.48757 
C    -0.97699   19.81213   21.36683 
C    -0.70592   21.10541   21.02339 
C    -0.18506   21.30509   19.75254 
C    0.10863    22.59266   19.37777 
C    0.01300    17.84953   18.35490 
C    0.54049    18.10448   17.11929 
C    0.81530    19.41270   16.76875 
C    1.35403    19.68766   15.51441 
N    1.62977    20.95787   15.17088 
C    1.40053    21.99029   16.00811 
C    -0.31554   16.52980   18.86658 
C    -0.63725   15.44086   17.95897 
C    -0.41690   14.14128   18.47460 
C    0.03805    13.92964   19.75175 
C    0.22650    12.62729   20.21964 
C    -0.02076   11.52892   19.46291 
C    -0.48315   11.73833   18.16885 
C    -0.67999   13.02734   17.67764 
C    -1.15100   13.15686   16.40292 
C    -1.36527   14.44354   15.90926 
C    -1.10656   15.54703   16.69034 
C    -1.84095   14.63773   14.62870 
N    -2.09781   13.56505   13.85844 
C    -1.89877   12.32440   14.31755 
C    -1.41593   12.08586   15.61290 
C    -1.22078   10.81828   16.08645 
C    -0.75432   10.64427   17.36909 
H    0.86005    23.84447   17.85052 
H    -0.98862   17.78688   20.88841 
H    -1.39046   19.62050   22.36867 
H    -0.86484   21.94737   21.67167 
H    -0.07675   23.41356   20.08036 
H    0.77809    17.31387   16.41299 
H    1.52732    18.85096   14.86042 
H    1.61319    23.02693   15.75786 
H    0.55872    16.21795   19.51516 
H    -1.22887   16.62445   19.52987 
H    0.23905    14.74683   20.42415 
H    0.58651    12.52110   21.23172 
H    0.12276    10.51798   19.81365 
H    -1.31509   16.52148   16.27963 
H    -2.00376   15.65897   14.25815 
H    -2.08552   11.42466   13.74588 
H    -1.42731   9.94581    15.46912 
H    -0.59273   9.63500    17.77427 
Pd   -1.37065   13.77598   11.87961 
Pd   1.88715    21.32162   13.16869 
