14
frame 0 | Written by MDAnalysis XYZWriter (release 2.4.2)
       N    11.54000   23.88000   16.35000
       C    11.20000   24.76000   17.31000
       H    11.60000   25.62000   17.32000
       C    10.28000   24.44000   18.30000
       H    10.06000   25.07000   18.98000
       C     9.66000   23.19000   18.26000
       H     9.00000   22.97000   18.91000
       C    10.02000   22.26000   17.29000
       C    10.97000   22.67000   16.32000
       H    11.20000   22.07000   15.62000
       C     9.42000   20.97000   17.22000
       H    10.12596   20.26203   16.76597
       H     9.16173   20.63108   18.23197
       H     8.50980   21.02243   16.60808

