11
frame 0 | Written by MDAnalysis XYZWriter (release 2.3.0)
       H     0.84100   -2.96000   10.98600
       H     4.75900   -0.41000   10.80300
       C     4.10400   -0.79200   11.34200
       N     2.99500   -1.43700   10.89100
       H     5.11100    5.17000    0.25000
       H     5.95000    3.59500    0.78000
       N     7.90100    5.50000    1.12500
       C     9.00900    6.14600    0.67400
       H     9.66500    6.52700    1.21200
       C     7.26000    5.13100    0.00000
       C     5.93800    4.42600    0.00000

