26
frame 0 | Written by MDAnalysis XYZWriter (release 2.4.2)
       C    16.19900   14.90700    3.19000
       N    12.53100   14.12000    2.72400
       C    12.28000   14.70200    1.53100
       C    13.27300   15.34900    0.80600
       C    14.56200   15.41900    1.33700
       C    14.84000   14.82800    2.56400
       C    13.78200   14.18800    3.21800
       N    10.05200   14.03700    1.99600
       C    10.88600   14.60700    1.08100
       C    10.41100   15.08600   -0.13500
       C     9.07300   14.97900   -0.43300
       C     8.20900   14.41100    0.51000
       C     8.74600   13.95300    1.69300
       C     6.72300   14.37800    0.26100
       H    13.07700   15.74000   -0.03900
       H    15.24800   15.86900    0.86100
       H    13.95300   13.77900    4.05800
       H    11.00900   15.48300   -0.75700
       H     8.74000   15.29000   -1.26700
       H     8.16100   13.55500    2.32800
       H    16.10349   14.84127    4.28192
       H    16.81838   14.07654    2.82617
       H    16.67110   15.86108    2.92070
       H     6.53348   14.35080   -0.82024
       H     6.29301   13.48340    0.73053
       H     6.25979   15.27576    0.69127

