85
Frame 0 | Written By Mdanalysis Xyzwriter (Release 2.4.2)
      Ru     1.05128    0.15893    0.30694
       C    -3.70227   -0.53150   -0.77828
       C    -3.17878    0.75966   -0.94175
       C    -1.83792    1.01391   -0.59627
       N    -1.03764   -0.00123   -0.13883
       C    -2.88281   -1.52278   -0.20797
       C    -1.54426   -1.20537    0.11588
       H    -1.44175    2.00572   -0.75467
       H    -4.73598   -0.72506   -1.05201
       H    -3.80185    1.55360   -1.34583
       C    -3.27125   -2.82948    0.08421
       C    -2.41141   -3.70226    0.71619
       C    -1.16083   -3.35439    1.16997
       C    -0.72309   -2.07982    0.84141
       N     0.50170   -1.65586    1.23398
       C     1.32728   -2.44431    1.97513
       C    -0.33755   -4.19851    1.92230
       C     0.90760   -3.73054    2.34811
       H     2.30938   -2.09255    2.24881
       H    -0.65534   -5.19731    2.19749
       H     1.54554   -4.37311    2.93896
       N    -4.43162   -3.45547   -0.17033
       C    -4.17744   -4.71378    0.27259
       N    -2.97261   -4.88671    0.80818
       C    -5.02366   -5.83590    0.14290
       H    -2.57876   -5.77268    1.19118
       H    -4.54874   -6.57892   -0.51140
       H    -5.19892   -6.27844    1.13240
       H    -5.98168   -5.52337   -0.29321
       C     5.85959    0.58626    1.18945
       C     4.99225    1.54588    1.74226
       C     3.61504    1.47779    1.47947
       N     3.11235    0.43272    0.76536
       C     5.33884   -0.42088    0.35358
       C     3.93031   -0.47711    0.17126
       H     2.94850    2.21543    1.90889
       H     6.92430    0.66650    1.38200
       H     5.38382    2.34382    2.36689
       C     6.12876   -1.36110   -0.35563
       C     5.57288   -2.27251   -1.22039
       C     4.16715   -2.35768   -1.39308
       C     3.34756   -1.41612   -0.70710
       N     1.98021   -1.43820   -0.81897
       C     1.36509   -2.44654   -1.50343
       C     3.53653   -3.32563   -2.18141
       C     2.13483   -3.38268   -2.21692
       H     0.28779   -2.49777   -1.56392
       H     4.11390   -4.05868   -2.73176
       H     1.64636   -4.15094   -2.80320
       N     7.47105   -1.52536   -0.34531
       C     7.72420   -2.52676   -1.24978
       N     6.57023   -2.99677   -1.79783
       C     9.13874   -3.05494   -1.50169
       H     6.47760   -3.77100   -2.48883
       H     9.75322   -2.89785   -0.60533
       H     9.09339   -4.12782   -1.73088
       H     9.58430   -2.51802   -2.34955
       C     1.62428    3.80061   -2.77257
       C     1.87323    2.50101   -3.22151
       C     1.75669    1.44529   -2.31866
       N     1.40928    1.69679   -1.02736
       C     1.24618    4.00343   -1.43088
       C     1.14644    2.91954   -0.56829
       H     1.90571    0.42752   -2.65254
       H     1.67130    4.61988   -3.48050
       H     2.11829    2.30755   -4.25941
       C     0.84760    5.21366   -0.92500
       C     0.34155    5.38659    0.34337
       C     0.16855    4.28951    1.20791
       C     0.61408    3.03828    0.72330
       N     0.33175    1.88297    1.37065
       C    -0.44930    1.88898    2.48922
       C    -0.52521    4.32889    2.42559
       C    -0.84799    3.11597    3.06128
       H    -0.71691    0.95709    2.97015
       H    -0.89084    5.26293    2.83936
       H    -1.43171    3.12670    3.97578
       N     0.75585    6.33058   -1.61817
       C     0.18655    7.19467   -0.76324
       N    -0.04407    6.66926    0.47199
       C    -0.16414    8.52002   -1.24499
       H    -0.50334    7.12182    1.29403
       H     0.73746    9.02507   -1.61618
       H    -0.89562    8.43182   -2.05913
       H    -0.59925    9.10469   -0.42371

