12
frame 0 | Written by MDAnalysis XYZWriter (release 2.4.2)
       H    -0.27388   -1.67974    3.52950
       H    -1.76966   -1.68608    4.51829
       H    -1.87235   -1.49520    2.73835
       C    -1.28200   -1.25700    3.63300
       C    -1.18600    0.24000    3.78800
       N    -1.49900    0.88300    4.97500
       C    -0.84900    1.23200    2.90000
       C    -1.35000    2.20400    4.77000
       N    -0.95800    2.47100    3.52100
       H    -1.77700    0.45300    5.81100
       H    -0.53800    1.07600    1.87800
       H    -1.52700    2.95700    5.52300

