12
frame 0 | Written by MDAnalysis XYZWriter (release 2.4.2)
       H    -5.78100    6.30200    2.36400
       H    -2.88200    3.45000    1.44200
       H    -3.78500    6.80900    3.84100
       H    -5.13960    3.88302   -0.37546
       H    -6.16366    3.27064    0.96297
       H    -6.41404    4.92918    0.32914
       C    -5.66500    4.15700    0.54900
       C    -4.67500    4.68900    1.55000
       N    -4.94900    5.78600    2.35300
       C    -3.40200    4.29300    1.87800
       C    -3.86200    6.01100    3.11600
       N    -2.89000    5.13100    2.86600

