162
frame 0 | Written by MDAnalysis XYZWriter (release 2.4.2)
       C     5.90364   -2.85551    0.64727
       C     5.73539   -1.46259    0.60667
       C     6.82485   -0.62186    0.68831
       C     6.58471    0.76364    0.62567
       C     6.21948    1.91321    0.55133
       C     5.81559    3.25511    0.44927
       C     6.73602    4.28847    0.25315
       C     6.26206    5.58335    0.15497
       C     4.89962    5.81394    0.25376
       N     4.01752    4.82301    0.44025
       C     4.45426    3.57692    0.54080
       C     8.12661   -1.15988    0.81911
       C     8.30686   -2.51298    0.86854
       C     7.21037   -3.39960    0.78367
       C     7.35766   -4.80364    0.82898
       C     6.27416   -5.63172    0.74471
       C     4.97698   -5.08742    0.60295
       C     3.81725   -5.88071    0.51844
       C     2.72991   -6.40243    0.44161
       C     1.44285   -6.96404    0.39244
       C     0.37456   -6.17172   -0.04643
       N    -0.87747   -6.61366   -0.06778
       C    -1.12848   -7.87030    0.31765
       C    -0.12759   -8.72794    0.74738
       C     1.17838   -8.27751    0.79222
       C     4.80265   -3.72039    0.55231
       H     4.74157   -1.05225    0.50833
       H     7.79033    4.06979    0.18300
       H     6.93811    6.40995    0.00527
       H     4.51787    6.83044    0.17769
       H     3.71773    2.79618    0.69358
       H     8.97068   -0.48866    0.88210
       H     9.30059   -2.92522    0.97219
       H     8.35046   -5.21789    0.93364
       H     6.39569   -6.70436    0.78251
       H     0.54696   -5.15277   -0.37883
       H    -2.15841   -8.21201    0.28841
       H    -0.37517   -9.73476    1.04351
       H     1.98145   -8.91531    1.12771
       H     3.81115   -3.30730    0.44366
       C     1.47408    0.75398   -6.47232
       C     1.59909    1.92104   -5.70350
       C     1.97011    3.11402   -6.28894
       C     2.06041    4.23245   -5.43912
       C     2.08320    5.07350   -4.57117
       C     2.10285    5.96518   -3.48557
       C     2.21850    7.35054   -3.61942
       C     2.23051    8.12011   -2.46999
       C     2.12940    7.50308   -1.23318
       N     2.01299    6.17418   -1.10377
       C     2.00254    5.42375   -2.19593
       C     2.23895    3.16900   -7.67553
       C     2.13291    2.03924   -8.43692
       C     1.74767    0.80557   -7.86673
       C     1.61929   -0.37931   -8.62501
       C     1.23115   -1.55190   -8.04195
       C     0.94864   -1.59734   -6.65605
       C     0.51863   -2.78012   -6.02515
       C     0.12100   -3.71335   -5.36808
       C    -0.36401   -4.83382   -4.67190
       C    -0.85645   -4.70434   -3.36667
       N    -1.35987   -5.73636   -2.70427
       C    -1.39142   -6.94480   -3.27793
       C    -0.90782   -7.16281   -4.55791
       C    -0.39238   -6.09779   -5.27217
       C     1.07571   -0.45955   -5.88865
       H     1.39846    1.87958   -4.64382
       H     2.30099    7.80034   -4.59683
       H     2.32322    9.19301   -2.52552
       H     2.14390    8.10365   -0.32644
       H     1.93333    4.34873   -2.06892
       H     2.53084    4.10888   -8.12103
       H     2.34162    2.07752   -9.49681
       H     1.83169   -0.34348   -9.68426
       H     1.13153   -2.45272   -8.62978
       H    -0.84970   -3.75269   -2.84095
       H    -1.80979   -7.76745   -2.70141
       H    -0.94505   -8.15119   -4.98715
       H    -0.01915   -6.22684   -6.27644
       H     0.86633   -0.49747   -4.83040
       C    -5.73535    3.12894   -1.62651
       C    -4.79623    3.99694   -1.05002
       C    -5.08788    5.33304   -0.86557
       C    -4.07970    6.10912   -0.26193
       C    -3.10902    6.59427    0.27112
       C    -1.90659    7.01696    0.86382
       C    -1.76370    8.18788    1.61018
       C    -0.52360    8.46474    2.15760
       C     0.52845    7.58601    1.95011
       N     0.39355    6.46272    1.23294
       C    -0.78715    6.18883    0.70042
       C    -6.34111    5.84533   -1.26949
       C    -7.26407    5.01615   -1.84289
       C    -6.99625    3.64273   -2.03632
       C    -7.93128    2.75548   -2.61432
       C    -7.64240    1.42980   -2.77061
       C    -6.38995    0.91959   -2.35226
       C    -6.07429   -0.44705   -2.47591
       C    -5.69412   -1.59405   -2.50683
       C    -5.35626   -2.95701   -2.57433
       C    -4.20086   -3.44805   -1.95226
       N    -3.88988   -4.73616   -1.97855
       C    -4.67948   -5.60108   -2.62528
       C    -5.83203   -5.19600   -3.27869
       C    -6.18423   -3.86008   -3.25130
       C    -5.45395    1.76295   -1.79415
       H    -3.84061    3.60738   -0.73522
       H    -2.60158    8.85252    1.75342
       H    -0.36648    9.35793    2.74113
       H     1.50424    7.80307    2.37771
       H    -0.88594    5.27867    0.12270
       H    -6.55803    6.89327   -1.12206
       H    -8.22293    5.40589   -2.15471
       H    -8.88936    3.14384   -2.93003
       H    -8.36536    0.75720   -3.20879
       H    -3.50627   -2.79741   -1.42652
       H    -4.38637   -6.64926   -2.63012
       H    -6.44356   -5.91987   -3.79297
       H    -7.08005   -3.50802   -3.73933
       H    -4.49906    1.37255   -1.47579
       C    -1.93796   -0.36034    6.26764
       C    -1.06976    0.65568    5.83927
       C    -0.50439    1.52560    6.74755
       C     0.36921    2.50519    6.23851
       C     1.08354    3.27597    5.64174
       C     1.87176    4.18727    4.91888
       C     2.75397    5.07690    5.53592
       C     3.46326    5.95767    4.73920
       C     3.26587    5.94146    3.36841
       N     2.42152    5.08459    2.77634
       C     1.75001    4.22205    3.52205
       C    -0.81225    1.41182    8.12310
       C    -1.66866    0.43868    8.55474
       C    -2.25064   -0.47680    7.64994
       C    -3.12354   -1.50846    8.06131
       C    -3.64105   -2.39707    7.16198
       C    -3.31130   -2.29092    5.79057
       C    -3.75346   -3.22058    4.83082
       C    -3.99961   -3.96227    3.90877
       C    -4.19934   -4.87229    2.85706
       C    -3.48061   -4.70549    1.66539
       N    -3.53900   -5.58391    0.67536
       C    -4.35979   -6.63704    0.78322
       C    -5.13911   -6.85434    1.90811
       C    -5.05077   -5.97524    2.97189
       C    -2.48502   -1.27632    5.35586
       H    -0.83721    0.74600    4.78914
       H     2.87031    5.07294    6.60875
       H     4.15641    6.66017    5.17393
       H     3.81127    6.64064    2.73661
       H     1.08150    3.53248    3.01995
       H    -0.36548    2.10292    8.82300
       H    -1.90767    0.35282    9.60540
       H    -3.37108   -1.59122    9.11024
       H    -4.29845   -3.19033    7.48664
       H    -2.84169   -3.84132    1.51937
       H    -4.40832   -7.32760   -0.05609
       H    -5.79396   -7.70991    1.95177
       H    -5.62100   -6.12882    3.87497
       H    -2.24368   -1.18830    4.30739
      Pd    -2.33787   -5.50874   -0.95931
      Pd     2.11703    5.44354    0.79737

