14
frame 0 | Written by MDAnalysis XYZWriter (release 2.4.2)
       N    31.75970   -0.84930    3.41570
       C    30.91720   -0.95660    2.39260
       H    30.53640   -0.16570    2.03390
       C    30.57480   -2.16960    1.82400
       H    29.99450   -2.20880    1.07400
       C    31.09540   -3.32670    2.37430
       C    31.98030   -3.22260    3.44020
       H    32.37610   -4.00000    3.81520
       C    32.27650   -1.97710    3.94360
       H    32.86460   -1.91000    4.68740
       C    30.70490   -4.67180    1.87290
       H    31.59069   -5.18659    1.47779
       H    30.27702   -5.25920    2.69603
       H    29.95877   -4.56246    1.07478

