162       
2157968
Pd 12.855800 24.454201 14.933500
N 11.543800 23.877399 16.351500
N 11.197900 10.680200 11.272800
N 14.387300 23.969801 16.158400
N 14.083700 10.781600 11.065800
C 11.197800 24.761299 17.314699
H 11.598300 25.622700 17.316700
C 10.276400 24.444799 18.297001
H 10.064900 25.068800 18.981400
C 9.663100 23.191200 18.264000
H 8.999500 22.971201 18.907499
C 10.020500 22.263800 17.292101
C 10.966400 22.673100 16.319700
H 11.197500 22.071100 15.622100
C 9.418000 20.969000 17.217899
C 8.900500 19.892700 17.173000
C 8.285400 18.591999 17.135201
C 7.105900 18.348301 17.906300
H 6.730600 19.044600 18.432699
C 6.516900 17.112000 17.886400
H 5.752000 16.949600 18.426100
C 7.027000 16.078800 17.079100
C 6.443300 14.796300 17.037201
H 5.674500 14.622800 17.567400
C 6.946800 13.799800 16.261101
H 6.522500 12.950000 16.247299
C 8.110900 14.026900 15.467200
C 8.701600 15.286000 15.517900
H 9.479800 15.448500 14.997800
C 8.192400 16.313999 16.303301
C 8.794800 17.597900 16.348499
H 9.566700 17.769300 15.821900
C 10.753300 9.419800 11.242800
H 11.126900 8.810400 10.616900
C 9.765200 8.984500 12.099200
H 9.468000 8.083300 12.055900
C 9.207800 9.839200 13.012300
H 8.534400 9.540100 13.611800
C 9.663400 11.186700 13.039800
C 10.672700 11.551900 12.161800
H 11.004700 12.441600 12.186000
C 9.106800 12.157100 13.930300
C 8.653100 13.004600 14.636100
C 15.079300 24.913000 16.813499
H 14.832800 25.823400 16.699499
C 16.131500 24.611401 17.643400
H 16.606600 25.306700 18.083200
C 16.496700 23.290501 17.836300
H 17.220800 23.069500 18.410000
C 15.782200 22.283199 17.172501
C 14.720400 22.683201 16.350500
H 14.212600 22.013201 15.908300
C 16.055599 20.888300 17.355200
C 16.229300 19.716900 17.513300
C 16.516199 18.328899 17.667700
C 17.216101 17.873100 18.794500
H 17.444201 18.486900 19.483000
C 17.574200 16.561199 18.918200
H 18.030199 16.271099 19.699400
C 17.273100 15.623000 17.891199
C 17.694099 14.260500 17.947500
H 18.189199 13.957400 18.699499
C 17.402800 13.392800 16.953300
H 17.733000 12.502700 16.989000
C 16.601200 13.810400 15.851000
C 16.170900 15.132000 15.779800
H 15.639600 15.410800 15.043300
C 16.508499 16.061199 16.778000
C 16.130600 17.412901 16.684700
H 15.608800 17.705999 15.946800
C 14.736600 9.619700 10.841100
H 14.453600 9.062600 10.125600
C 15.810600 9.216400 11.627300
H 16.251301 8.393200 11.452400
C 16.224899 10.016600 12.654100
H 16.961399 9.754400 13.193700
C 15.563000 11.224800 12.910500
C 14.494400 11.561200 12.094000
H 14.031000 12.373100 12.262700
C 15.946400 12.107700 13.963600
C 16.256100 12.868700 14.822800
Pd 12.530000 11.313900 9.891500
N 13.842000 11.890800 8.473500
N 14.187900 25.087999 13.552200
N 10.998500 11.798400 8.666700
N 11.302100 24.986601 13.759300
C 14.187900 11.006900 7.510300
H 13.787500 10.145400 7.508300
C 15.109400 11.323400 6.528000
H 15.320800 10.699300 5.843600
C 15.722700 12.577000 6.561000
H 16.386200 12.797000 5.917500
C 15.365300 13.504300 7.532900
C 14.419400 13.095100 8.505300
H 14.188300 13.697000 9.202900
C 15.967800 14.799100 7.607100
C 16.485201 15.875400 7.652100
C 17.100401 17.176201 7.689800
C 18.279900 17.419800 6.918700
H 18.655199 16.723600 6.392300
C 18.868900 18.656099 6.938600
H 19.633699 18.818600 6.398900
C 18.358700 19.689301 7.745900
C 18.942499 20.971901 7.787900
H 19.711300 21.145399 7.257600
C 18.438999 21.968300 8.563900
H 18.863300 22.818100 8.577700
C 17.274900 21.741301 9.357800
C 16.684099 20.482100 9.307200
H 15.906000 20.319599 9.827300
C 17.193300 19.454100 8.521700
C 16.591000 18.170300 8.476500
H 15.819000 17.998800 9.003200
C 14.632500 26.348400 13.582300
H 14.258900 26.957701 14.208100
C 15.620600 26.783600 12.725800
H 15.917700 27.684900 12.769200
C 16.177900 25.929001 11.812700
H 16.851400 26.228100 11.213200
C 15.722300 24.581499 11.785200
C 14.713100 24.216299 12.663200
H 14.381100 23.326500 12.639000
C 16.278999 23.611000 10.894700
C 16.732599 22.763500 10.188900
C 10.306500 10.855200 8.011500
H 10.553000 9.944800 8.125600
C 9.254200 11.156700 7.181600
H 8.779100 10.461400 6.741800
C 8.889100 12.477700 6.988700
H 8.165000 12.698600 6.415000
C 9.603600 13.484900 7.652600
C 10.665400 13.085000 8.474500
H 11.173100 13.755000 8.916800
C 9.330200 14.879800 7.469900
C 9.156500 16.051201 7.311700
C 8.869600 17.439199 7.157300
C 8.169700 17.895100 6.030500
H 7.941600 17.281300 5.342100
C 7.811600 19.206900 5.906900
H 7.355500 19.497000 5.125600
C 8.112700 20.145201 6.933900
C 7.691700 21.507601 6.877500
H 7.196600 21.810801 6.125600
C 7.983000 22.375299 7.871800
H 7.652800 23.265400 7.836000
C 8.784600 21.957701 8.974000
C 9.214800 20.636101 9.045200
H 9.746200 20.357401 9.781700
C 8.877300 19.706900 8.047000
C 9.255200 18.355301 8.140400
H 9.776900 18.062099 8.878300
C 10.649200 26.148399 13.983900
H 10.932100 26.705500 14.699500
C 9.575200 26.551701 13.197700
H 9.134500 27.374901 13.372700
C 9.160900 25.751499 12.171000
H 8.424400 26.013700 11.631300
C 9.822800 24.543400 11.914500
C 10.891400 24.206900 12.731000
H 11.354800 23.395100 12.562300
C 9.439400 23.660400 10.861400
C 9.129600 22.899401 10.002300
