57
Coordinates from ORCA-job site0_opt_orca
  Pd  -1.99046870890027     12.23113095630287     11.56827008203962
  C   2.04843632719487     11.38106398083980     12.71452062744134
  C   3.02350964493841     11.97554682993930     13.68002917162383
  C   2.37291641622256     10.27270768290752     11.91942543469544
  C   1.43723147429022      9.75215249744244     11.03305737385805
  C   0.18518066482043     10.34592242527507     10.94630420817072
  N   -0.13741930606375     11.40266447897033     11.70733553864718
  C   0.76486703678248     11.90582924972336     12.56795047196646
  H   3.36403838465140      9.81761182591485     11.99815179908753
  H   1.66929681566559      8.88933748407288     10.40636249388942
  H   -0.57621378292975      9.97580123916316     10.25687597096025
  H   0.44505778682988     12.76155102072391     13.16741763981344
  H   2.59229665270727     12.82239865924194     14.22972442972274
  H   3.92334692936203     12.33165005981840     13.15549447693813
  H   3.35461042214069     11.22322077865680     14.41188691392607
  C   -0.48659707674316     13.42329101400213      7.73801482739230
  C   0.67203289221461     14.23679357352533      7.25661253232610
  C   -1.40467065007505     12.84491885764730      6.84995707815478
  C   -2.47063753371150     12.09766484317829      7.33691496187841
  C   -2.61282464532020     11.93933075660702      8.70873526746584
  N   -1.73729778681559     12.48473401250703      9.56677395231751
  C   -0.70225706955744     13.20323883567170      9.09817244398860
  H   -1.27951305156241     12.98254279204852      5.77244928163134
  H   -3.19508579761138     11.63759781873494      6.66266057589379
  H   -3.44121050437275     11.36990841939906      9.13500691868355
  H   -0.01642993945582     13.61611403630766      9.84205899336862
  H   1.31179431349856     13.64400114038820      6.58522609804539
  H   1.29161976689422     14.60165561997559      8.08619221176268
  H   0.32275318348119     15.10814942517211      6.68178486889867
  C   -5.26905910277433     14.87527914289963     10.77675610455644
  C   -5.41314422399825     16.24858324397496     10.20304541676859
  C   -6.37817969762939     14.13039897624504     11.20217010086009
  C   -6.20240713807329     12.85810280332368     11.73357996999970
  C   -4.91794299957073     12.34136126832958     11.83677003768308
  N   -3.85095301068728     13.04280379388477     11.42505856399105
  C   -4.01842943426387     14.27276904186109     10.90891463901931
  H   -7.38275596374105     14.55341551656653     11.11546748684358
  H   -7.05241928410081     12.26251567516452     12.07098661931066
  H   -4.73214476134265     11.35130733479929     12.25806253943739
  H   -3.11486643931559     14.79479281705954     10.58450908860587
  H   -5.90175860372156     16.92219007452787     10.92346393495306
  H   -6.04450028619655     16.22931416586818      9.30147464287485
  H   -4.44302663534836     16.68517196770067      9.93182704199693
  C   -2.76528410632860     12.92084361189954     15.72140911968860
  C   -3.11690433136552     14.11618124584970     16.54800280796259
  C   -2.61227407960639     11.64682770610049     16.28663047091958
  C   -2.28398341213061     10.56158465966509     15.48250788949645
  C   -2.10660296671573     10.75975602810623     14.11977708765222
  N   -2.25490887562655     11.97392760723170     13.56843292554523
  C   -2.57688799694037     13.02417956166412     14.34383472185414
  H   -2.75252943352678     11.50864707729496     17.36219670950939
  H   -2.16185597337938      9.56164982975718     15.90233235108588
  H   -1.83839003908488      9.93795850811737     13.45291469874784
  H   -2.69189241832209     13.98692661717045     13.84003216032255
  H   -3.20338606910536     15.02569905606581     15.93923181880846
  H   -2.35360937737777     14.29369442079650     17.32102790126125
  H   -4.07326619830120     13.96058793391570     17.07021650565530
