24
frame 0 | Written by MDAnalysis XYZWriter (release 2.4.2)
       N     6.52800   29.26200    1.71800
       C     6.74300   30.55800    2.08400
       C     6.27700   31.60100    1.31800
       H     6.44200   32.50100    1.57100
       C     5.56400   31.32300    0.18800
       H     5.23600   32.03400   -0.34900
       C     5.31600   30.03400   -0.18100
       H     4.80500   29.83600   -0.95800
       C     5.83300   29.02300    0.60900
       H     5.68500   28.12300    0.34600
       N     8.45900   30.09000    5.13600
       N     7.92000   29.64000    3.97600
       C     8.38400   31.43500    5.17800
       H     8.70700   31.98800    5.88000
       C     7.76200   31.87000    4.04500
       H     7.57200   32.76700    3.79200
       C     7.47400   30.72500    3.34300
       C     9.16300   29.21500    6.04600
       H     8.70300   28.33800    6.08200
       H     9.14600   29.60400    6.95500
       C    10.60400   29.01100    5.61200
       H    11.26174   29.06444    6.48964
       H    10.70721   28.02657    5.13671
       H    10.88496   29.79450    4.89586

