73
Frame 0 | Written By Mdanalysis Xyzwriter (Release 2.4.2)
      Co    25.77300   29.50400   -3.06800
       N    27.64300   29.38800   -4.23100
       C    28.54700   30.28600   -3.89000
       C    29.86100   30.30900   -4.49000
       H    30.51400   30.95400   -4.24000
       C    30.12400   29.34900   -5.44200
       H    30.97700   29.32100   -5.85200
       C    29.17600   28.44100   -5.80500
       H    29.34300   27.80800   -6.49200
       C    27.94000   28.47300   -5.13400
       H    27.29500   27.80800   -5.34300
       N    26.94500   32.03600   -1.31400
       N    27.01200   31.06500   -2.25100
       C    28.19700   31.23700   -2.86100
       C    28.86000   32.33400   -2.34100
       H    29.69900   32.68700   -2.62200
       C    28.05000   32.80400   -1.33100
       H    28.23300   33.53500   -0.75600
       C    25.81200   32.10200   -0.40500
       H    26.12600   32.43500    0.47200
       H    25.45600   31.18800   -0.27000
       C    24.70400   32.98500   -0.88300
       H    25.03722   33.54447   -1.76714
       H    23.83328   32.36986   -1.14590
       H    24.42783   33.68912   -0.08701
       N    26.55200   28.03300   -1.71800
       C    26.33600   26.73700   -2.08400
       C    26.80200   25.69400   -1.31800
       H    26.63700   24.79400   -1.57100
       C    27.51500   25.97200   -0.18800
       H    27.84300   25.26100    0.34900
       C    27.76400   27.26100    0.18100
       H    28.27400   27.45900    0.95800
       C    27.24600   28.27200   -0.60900
       H    27.39500   29.17200   -0.34600
       N    24.62000   27.20500   -5.13600
       N    25.15900   27.65500   -3.97600
       C    25.60500   26.57100   -3.34300
       C    25.31700   25.42500   -4.04500
       H    25.50700   24.52800   -3.79200
       C    24.69500   25.86000   -5.17800
       H    24.37300   25.30700   -5.88000
       C    23.91600   28.08000   -6.04600
       H    24.37600   28.95700   -6.08200
       H    23.93300   27.69100   -6.95500
       C    22.47600   28.28400   -5.61200
       H    21.85882   28.51810   -6.48951
       H    22.10356   27.36689   -5.13677
       H    22.42379   29.11461   -4.89575
       N    24.81000   30.90000   -4.35800
       C    23.55200   31.24300   -4.00500
       C    22.82100   32.14800   -4.78800
       H    21.93700   32.38000   -4.53500
       C    23.36900   32.69500   -5.89300
       H    22.87300   33.29100   -6.44400
       C    24.71500   32.34600   -6.20500
       H    25.14900   32.73600   -6.95500
       C    25.35500   31.46600   -5.43600
       H    26.24300   31.23400   -5.66800
       N    23.17000   29.55400   -0.95300
       N    23.88000   29.88800   -2.05500
       C    23.05600   30.67600   -2.80500
       C    21.82600   30.81900   -2.17200
       H    21.07200   31.30600   -2.48100
       C    21.93700   30.11700   -1.01600
       H    21.25800   30.03100   -0.35600
       C    23.64700   28.64500    0.05500
       H    24.61800   28.79100    0.18100
       H    23.19800   28.85400    0.91000
       C    23.41000   27.17500   -0.27800
       H    24.36786   26.69510   -0.51868
       H    22.95591   26.67255    0.58629
       H    22.73568   27.09940   -1.14127

