162

N    11.54000   23.88000   16.35000
N    11.20000   10.68000   11.27000
C    11.20000   24.76000   17.31000
H    11.60000   25.62000   17.32000
C    10.28000   24.44000   18.30000
H    10.06000   25.07000   18.98000
C     9.66000   23.19000   18.26000
H     9.00000   22.97000   18.91000
C    10.02000   22.26000   17.29000
C    10.97000   22.67000   16.32000
H    11.20000   22.07000   15.62000
C     9.42000   20.97000   17.22000
C     8.90000   19.89000   17.17000
C     8.29000   18.59000   17.14000
C     7.11000   18.35000   17.91000
H     6.73000   19.04000   18.43000
C     6.52000   17.11000   17.89000
H     5.75000   16.95000   18.43000
C     7.03000   16.08000   17.08000
C     6.44000   14.80000   17.04000
H     5.67000   14.62000   17.57000
C     6.95000   13.80000   16.26000
H     6.52000   12.95000   16.25000
C     8.11000   14.03000   15.47000
C     8.70000   15.29000   15.52000
H     9.48000   15.45000   15.00000
C     8.19000   16.31000   16.30000
C     8.79000   17.60000   16.35000
H     9.57000   17.77000   15.82000
C    10.75000    9.42000   11.24000
H    11.13000    8.81000   10.62000
C     9.77000    8.98000   12.10000
H     9.47000    8.08000   12.06000
C     9.21000    9.84000   13.01000
H     8.53000    9.54000   13.61000
C     9.66000   11.19000   13.04000
C    10.67000   11.55000   12.16000
H    11.00000   12.44000   12.19000
C     9.11000   12.16000   13.93000
C     8.65000   13.00000   14.64000
N    11.00000   11.80000    8.67000
N    11.30000   24.99000   13.76000
C    10.31000   10.86000    8.01000
H    10.55000    9.94000    8.13000
C     9.25000   11.16000    7.18000
H     8.78000   10.46000    6.74000
C     8.89000   12.48000    6.99000
H     8.17000   12.70000    6.41000
C     9.60000   13.48000    7.65000
C    10.67000   13.09000    8.47000
H    11.17000   13.76000    8.92000
C     9.33000   14.88000    7.47000
C     9.16000   16.05000    7.31000
C     8.87000   17.44000    7.16000
C     8.17000   17.90000    6.03000
H     7.94000   17.28000    5.34000
C     7.81000   19.21000    5.91000
H     7.36000   19.50000    5.13000
C     8.11000   20.15000    6.93000
C     7.69000   21.51000    6.88000
H     7.20000   21.81000    6.13000
C     7.98000   22.38000    7.87000
H     7.65000   23.27000    7.84000
C     8.78000   21.96000    8.97000
C     9.21000   20.64000    9.05000
H     9.75000   20.36000    9.78000
C     8.88000   19.71000    8.05000
C     9.26000   18.36000    8.14000
H     9.78000   18.06000    8.88000
C    10.65000   26.15000   13.98000
H    10.93000   26.71000   14.70000
C     9.58000   26.55000   13.20000
H     9.13000   27.37000   13.37000
C     9.16000   25.75000   12.17000
H     8.42000   26.01000   11.63000
C     9.82000   24.54000   11.91000
C    10.89000   24.21000   12.73000
H    11.35000   23.40000   12.56000
C     9.44000   23.66000   10.86000
C     9.13000   22.90000   10.00000
N    14.39000   23.97000   16.16000
N    14.08000   10.78000   11.07000
C    15.08000   24.91000   16.81000
H    14.83000   25.82000   16.70000
C    16.13000   24.61000   17.64000
H    16.61000   25.31000   18.08000
C    16.50000   23.29000   17.84000
H    17.22000   23.07000   18.41000
C    15.78000   22.28000   17.17000
C    14.72000   22.68000   16.35000
H    14.21000   22.01000   15.91000
C    16.06000   20.89000   17.36000
C    16.23000   19.72000   17.51000
C    16.52000   18.33000   17.67000
C    17.22000   17.87000   18.79000
H    17.44000   18.49000   19.48000
C    17.57000   16.56000   18.92000
H    18.03000   16.27000   19.70000
C    17.27000   15.62000   17.89000
C    17.69000   14.26000   17.95000
H    18.19000   13.96000   18.70000
C    17.40000   13.39000   16.95000
H    17.73000   12.50000   16.99000
C    16.60000   13.81000   15.85000
C    16.17000   15.13000   15.78000
H    15.64000   15.41000   15.04000
C    16.51000   16.06000   16.78000
C    16.13000   17.41000   16.68000
H    15.61000   17.71000   15.95000
C    14.74000    9.62000   10.84000
H    14.45000    9.06000   10.13000
C    15.81000    9.22000   11.63000
H    16.25000    8.39000   11.45000
C    16.22000   10.02000   12.65000
H    16.96000    9.75000   13.19000
C    15.56000   11.22000   12.91000
C    14.49000   11.56000   12.09000
H    14.03000   12.37000   12.26000
C    15.95000   12.11000   13.96000
C    16.26000   12.87000   14.82000
N    13.84000   11.89000    8.47000
N    14.19000   25.09000   13.55000
C    14.19000   11.01000    7.51000
H    13.79000   10.15000    7.51000
C    15.11000   11.32000    6.53000
H    15.32000   10.70000    5.84000
C    15.72000   12.58000    6.56000
H    16.39000   12.80000    5.92000
C    15.37000   13.50000    7.53000
C    14.42000   13.10000    8.51000
H    14.19000   13.70000    9.20000
C    15.97000   14.80000    7.61000
C    16.49000   15.88000    7.65000
C    17.10000   17.18000    7.69000
C    18.28000   17.42000    6.92000
H    18.66000   16.72000    6.39000
C    18.87000   18.66000    6.94000
H    19.63000   18.82000    6.40000
C    18.36000   19.69000    7.75000
C    18.94000   20.97000    7.79000
H    19.71000   21.15000    7.26000
C    18.44000   21.97000    8.56000
H    18.86000   22.82000    8.58000
C    17.27000   21.74000    9.36000
C    16.68000   20.48000    9.31000
H    15.91000   20.32000    9.83000
C    17.19000   19.45000    8.52000
C    16.59000   18.17000    8.48000
H    15.82000   18.00000    9.00000
C    14.63000   26.35000   13.58000
H    14.26000   26.96000   14.21000
C    15.62000   26.78000   12.73000
H    15.92000   27.68000   12.77000
C    16.18000   25.93000   11.81000
H    16.85000   26.23000   11.21000
C    15.72000   24.58000   11.79000
C    14.71000   24.22000   12.66000
H    14.38000   23.33000   12.64000
C    16.28000   23.61000   10.89000
C    16.73000   22.76000   10.19000
Pd   12.86000   24.45000   14.93000
Pd   12.53000   11.31000    9.89000
