73
Frame 0 | Written By Mdanalysis Xyzwriter (Release 2.4.2)
      Co    16.54000   28.64700    9.10400
       N    17.84500   27.40700   10.29300
       C    17.85600   26.10400    9.98300
       C    18.57700   25.15300   10.69500
       H    18.58700   24.24200   10.42800
       C    19.27000   25.57900   11.79400
       H    19.76700   24.95500   12.31100
       C    19.25200   26.87700   12.13600
       H    19.73800   27.16400   12.89900
       C    18.53900   27.81400   11.40000
       H    18.52800   28.72800   11.66400
       N    15.84900   26.13200    7.10700
       N    16.45800   26.71700    8.11900
       C    17.07900   25.74800    8.80900
       C    16.86100   24.51700    8.18000
       H    17.18600   23.67100    8.45700
       C    16.08700   24.76900    7.09100
       H    15.77100   24.14100    6.45500
       C    15.03300   26.84600    6.17500
       H    15.05900   26.37600    5.30500
       H    15.41800   27.74800    6.04100
       C    13.59900   26.98300    6.61800
       H    12.95847   27.14310    5.74060
       H    13.28702   26.06680    7.13658
       H    13.50668   27.83891    7.29958
       N    16.96100   30.39800   10.29300
       C    18.08400   31.06000    9.98300
       C    18.54800   32.16000   10.69500
       H    19.33100   32.62400   10.42800
       C    17.83100   32.54600   11.79400
       H    18.12400   33.28800   12.31100
       C    16.71700   31.88200   12.13600
       H    16.22500   32.16000   12.89900
       C    16.26200   30.79600   11.40000
       H    15.47600   30.32900   11.66400
       N    19.06300   29.30700    7.10700
       N    18.25200   29.54200    8.11900
       C    18.78100   30.56400    8.80900
       C    19.95700   30.99100    8.18000
       H    20.52600   31.69600    8.45700
       C    20.12500   30.19400    7.09100
       H    20.82700   30.23500    6.45500
       C    18.85400   28.24400    6.17500
       H    19.24700   28.50100    5.30500
       H    17.87900   28.12600    6.04100
       C    19.45200   26.93300    6.61800
       H    20.40175   27.12037    7.13628
       H    18.75690   26.42550    7.29987
       H    19.63295   26.29819    5.74054
       N    14.81300   28.13800   10.29300
       C    13.67800   28.77900    9.98300
       C    12.49400   28.63000   10.69500
       H    11.70000   29.07700   10.42800
       C    12.51700   27.81700   11.79400
       H    11.72800   27.69900   12.31100
       C    13.65000   27.18400   12.13600
       H    13.65500   26.61900   12.89900
       C    14.81800   27.33300   11.40000
       H    15.61500   26.88600   11.66400
       N    14.70600   30.50300    7.10700
       N    14.90900   29.68300    8.11900
       C    13.75900   29.63000    8.80900
       C    12.80200   30.43500    8.18000
       H    11.90700   30.57600    8.45700
       C    13.40700   30.97900    7.09100
       H    13.02200   31.56700    6.45500
       C    15.73300   30.85300    6.17500
       H    15.31200   31.06500    5.30500
       H    16.32100   30.06800    6.04100
       C    16.56900   32.02700    6.61800
       H    17.35654   31.67920    7.29958
       H    17.02775   32.50150    5.74047
       H    15.93156   32.75528    7.13658

