24
frame 0 | Written by MDAnalysis XYZWriter (release 2.4.2)
       N    32.60830    2.69590    5.26010
       N    33.72280    1.37350    3.06520
       C    32.79220    2.56500    6.67250
       H    33.52780    1.94040    6.84980
       H    31.96880    2.22210    7.07800
       H    33.00600    3.44130    7.05560
       C    31.66190    3.71400    4.98300
       H    31.45660    3.71970    4.02510
       H    32.02900    4.58190    5.24380
       H    30.84050    3.54210    5.49250
       C    33.95160    3.04340    4.81380
       H    34.07780    4.01890    4.91980
       H    34.60810    2.59100    5.40080
       C    34.23200    2.69800    3.48090
       H    35.21280    2.71370    3.35050
       H    33.83970    3.38770    2.88790
       C    33.27490    1.50220    1.65690
       H    34.02660    1.80270    1.10050
       H    32.54930    2.15880    1.60390
       H    32.95600    0.63250    1.33490
       C    34.77130    0.34680    3.14670
       H    34.42690   -0.50120    2.79820
       H    35.04370    0.23110    4.08010
       H    35.54540    0.62800    2.61270

