11
frame 0 | Written by MDAnalysis XYZWriter (release 2.4.2)
       H     9.88700   -4.36700    5.10900
       H     9.88700   -2.24100    6.33600
       C     9.02900   -3.62900    4.97100
       C     9.02900   -2.49000    5.62800
       C     7.24700   -2.56200    4.43700
       C     5.91700   -2.22500    3.85400
       N     7.88000   -3.69900    4.17400
       N     7.88100   -1.76500    5.29100
       H     5.43600   -3.17000    3.43400
       H     6.05000   -1.46200    3.01800
       H     5.24700   -1.78600    4.66500

