45
Frame 0 | Written By Mdanalysis Xyzwriter (Release 2.4.2)
      Co     7.34300    0.00000    5.99600
       N     3.67700   -0.72600    7.81700
       H     4.38300    1.65100    5.65600
       H     5.22400   -3.06700    7.83600
       H     5.72900   -1.99800    9.27400
       H     6.79200   -2.06800    7.74800
       H     2.37900    0.94300    6.88300
       C     4.43400    0.76000    6.36400
       C     3.36000    0.38000    7.02100
       C     4.96000   -0.94400    7.55500
       C     5.72100   -2.08700    8.13800
       N     5.50000   -0.08200    6.70100
       N     7.88100   -1.76500    5.29100
       H     9.88737   -4.36714    5.10900
       H     5.43637   -3.17014    3.43400
       H     6.05000   -1.46200    3.01800
       H     5.24700   -1.78600    4.66500
       H     9.88700   -2.24100    6.33600
       C     9.02937   -3.62914    4.97100
       C     9.02900   -2.49000    5.62800
       C     7.24700   -2.56200    4.43700
       C     5.91700   -2.22500    3.85400
       N     7.88037   -3.69914    4.17400
       N    10.39600    1.16100    8.57100
       H     7.27400    0.49100    9.36700
       H    11.08700    1.95200    6.00600
       H     9.90800    0.73000    5.24300
       H    11.43600    0.12700    6.11900
       H     9.27800    1.20000   10.59400
       C     8.25600    0.65300    8.81000
       C     9.32900    1.03200    9.46800
       C     9.85600    0.85300    7.39700
       C    10.61700    0.91900    6.11600
       N     8.57200    0.51700    7.45400
       N     7.42100    3.26400    3.42100
       H     7.83000    0.09900    2.62500
       H     7.52800    4.45100    5.76800
       H     7.67600    2.85400    6.71200
       H     6.00800    3.43800    6.12700
       H     7.83000    2.22400    1.39800
       C     7.65500    1.07800    3.18100
       C     7.65500    2.21600    2.52400
       C     7.31000    2.65300    4.59500
       C     7.11900    3.39300    5.87600
       N     7.42100    1.33100    4.53800

