15
frame 0 | Written by MDAnalysis XYZWriter (release 2.4.2)
       C   -23.01589  -25.00122  -14.90954
       C   -22.10869  -26.13282  -14.55626
       C   -21.37144  -26.88711  -15.49687
       O   -21.40051  -26.70480  -16.77630
       H   -22.51233  -24.33802  -15.62531
       H   -23.93532  -25.39654  -15.36124
       H   -23.26736  -24.43668  -14.00195
       C   -20.48699  -27.94869  -15.03267
       C   -21.96979  -26.43854  -13.20828
       C   -21.12899  -27.46148  -12.76678
       O   -19.82491  -28.59116  -15.92837
       H   -22.53710  -25.84939  -12.50312
       C   -20.39185  -28.20818  -13.65775
       H   -21.05696  -27.66471  -11.70945
       H   -19.73774  -28.99993  -13.32764

