65
Frame 0 | Written By Mdanalysis Xyzwriter (Release 2.4.2)
      Zn     0.58600   11.30900   15.29300
       N    -0.01400    6.89300   12.71200
       C    -1.12500    7.40400   13.25900
       C     1.08400    7.64700   12.73400
       O     1.61600   14.21000   19.83400
       C     1.95200   13.90900   18.55400
       H     0.67225   14.02229   19.86261
       N    -0.01200    9.37800   13.98600
       C     1.08400    8.88600   13.39000
       C    -1.12600    8.65600   13.87600
       N     2.29500   10.73300   14.26200
       C     2.31500    9.69600   13.53000
       C     3.53000   11.52100   14.41400
       N     1.63100   12.76900   16.45000
       C     1.25300   13.04000   17.72400
       C     2.74500   13.36400   15.97700
       C    -2.33100    6.55800   13.22300
       H    -1.92300    8.99500   14.21700
       H    -2.27225    5.87299   12.36682
       H    -2.39852    5.97721   14.15240
       H    -3.22092    7.19337   13.12294
       H     0.49000   12.62700   18.05800
       H     3.09400    9.44700   13.08700
       H     1.85700    7.35000   12.31100
       C     3.11000   14.49800   18.05200
       C     3.49500   14.22300   16.77200
       C     3.19500   13.00500   14.58900
       H     4.09100   11.40400   13.63100
       H     4.02500   11.20600   15.18800
       H     4.26600   14.61500   16.42800
       H     3.98100   13.53000   14.36800
       H     2.49600   13.24200   13.96100
       H     3.61600   15.07100   18.58300
       N     1.34300    7.45000   18.65100
       C     2.41900    7.87300   17.98300
       C     0.23400    8.18600   18.50800
       O    -0.67000   13.28000   10.34500
       C    -0.94500   13.22000   11.65800
       H     0.17036   12.81555   10.27581
       N     1.27000    9.66800   16.94500
       C     0.19300    9.27300   17.64000
       C     2.39900    8.98700   17.15300
       N    -1.08200   10.88800   16.46300
       C    -1.06200   10.02200   17.37500
       C    -2.33800   11.60700   16.19700
       N    -0.52200   12.50500   13.91900
       C    -0.19000   12.53900   12.61800
       C    -1.62600   13.16200   14.32300
       C     3.63300    7.02900   18.13300
       H     3.18300    9.26300   16.73600
       H     4.19893    7.35525   19.01562
       H     3.33592    5.97914   18.25626
       H     4.26115    7.12901   17.23797
       H     0.57700   12.09100   12.34300
       H    -1.82600    9.85300   17.87800
       H    -0.52500    7.96400   18.99900
       C    -2.06100   13.92000   12.09700
       C    -2.39900   13.88400   13.42700
       C    -2.04100   13.05000   15.76200
       H    -2.88500   11.61400   16.99800
       H    -2.83200   11.15100   15.49800
       H    -3.14600   14.34800   13.72800
       H    -2.83200   13.59100   15.90500
       H    -1.33300   13.40700   16.32100
       H    -2.57600   14.40800   11.49600

