11
frame 0 | Written by MDAnalysis XYZWriter (release 2.4.2)
       N     3.67700   -0.72600    7.81700
       H     4.38300    1.65100    5.65600
       H     5.22400   -3.06700    7.83600
       H     5.72900   -1.99800    9.27400
       H     6.79200   -2.06800    7.74800
       H     2.37900    0.94300    6.88300
       C     4.43400    0.76000    6.36400
       C     3.36000    0.38000    7.02100
       C     4.96000   -0.94400    7.55500
       C     5.72100   -2.08700    8.13800
       N     5.50000   -0.08200    6.70100

