11
frame 0 | Written by MDAnalysis XYZWriter (release 2.4.2)
       H     7.83000    2.22400    1.39800
       H     7.83000    0.09900    2.62500
       H     7.52800    4.45100    5.76800
       H     7.67600    2.85400    6.71200
       C     7.65500    2.21600    2.52400
       H     6.00800    3.43800    6.12700
       C     7.65500    1.07800    3.18100
       C     7.31000    2.65300    4.59500
       C     7.11900    3.39300    5.87600
       N     7.42100    3.26400    3.42100
       N     7.42100    1.33100    4.53800

