23
Frame 0 | Written By Mdanalysis Xyzwriter (Release 2.4.2)
      Se    -0.62000   -0.46000   -0.13900
       C    -1.01600    1.31500    0.01600
       C     0.14200    2.10100    0.07600
       C    -2.44900    1.79100    0.03900
       C     1.33200    1.36700    0.04600
       O     0.08100    3.45700    0.14500
       C     1.13700   -0.02000   -0.00300
       O     2.53700    1.99300    0.04500
       C     2.17200   -1.09500    0.11000
       H    -2.70772    2.22082   -0.93776
       H    -3.11292    0.94305    0.25313
       H    -2.56833    2.55524    0.81833
       H     2.92481   -0.80169    0.85363
       H     1.69353   -2.03220    0.42365
       H     2.65710   -1.23987   -0.86435
       C     1.12600    4.35400    0.20100
       C     3.57800    1.72000   -0.82500
       H     4.52895    1.74210   -0.27642
       H     3.43385    0.72552   -1.26759
       H     3.59723    2.47577   -1.62131
       H     1.81852    4.05985    1.00077
       H     1.65712    4.35762   -0.76002
       H     0.73490    5.35915    0.40688

