158

C    1.65781    10.54231   12.46091 
C    2.78185    11.29733   12.84950 
C    3.79807    11.84573   13.19976 
C    5.00518    12.49850   13.63228 
C    4.89251    14.02765   13.67185 
C    6.17766    14.64336   14.22594 
C    6.10900    16.16194   14.38995 
C    6.17381    16.90541   13.04616 
C    6.12291    18.33205   13.24060 
C    6.07659    19.52180   13.43074 
C    6.02531    20.91673   13.62911 
C    4.80492    21.59205   13.55903 
N    4.70227    22.90776   13.73433 
C    5.79682    23.62693   13.98747 
C    7.05094    23.03875   14.07569 
C    7.17428    21.67354   13.89701 
C    1.73987    9.14470    12.37075 
C    0.62061    8.42722    11.99613 
C    -0.55602   9.10728    11.71890 
N    -0.63778   10.43718   11.80182 
C    0.43203    11.14344   12.16087 
H    5.81578    12.20200   12.96013 
H    5.25188    12.12032   14.62928 
H    4.69449    14.39509   12.66258 
H    4.04891    14.31071   14.30706 
H    6.37646    14.20722   15.20694 
H    7.01696    14.38562   13.57729 
H    6.94938    16.48791   15.00432 
H    5.18931    16.43515   14.91340 
H    7.10839    16.65549   12.53741 
H    5.33970    16.60774   12.40528 
H    3.88617    21.04220   13.35211 
H    5.66298    24.69775   14.12213 
H    7.91637    23.64759   14.28168 
H    8.13547    21.18764   13.95942 
H    2.67122    8.64869    12.59512 
H    0.65369    7.35253    11.91926 
H    -1.45754   8.57286    11.42258 
H    0.31699    12.22474   12.21490 
C    -0.94077   12.51277   7.57049  
C    -0.27775   13.62915   7.02410  
C    0.29220    14.52924   6.45736  
C    0.98663    15.59449   5.78410  
C    1.31747    16.78093   6.69814  
C    2.12021    17.83529   5.93554  
C    2.58223    19.00334   6.80718  
C    1.43069    19.94595   7.19201  
C    1.90542    21.04356   7.99551  
C    2.32742    21.95042   8.66872  
C    2.79533    23.02181   9.45679  
C    2.68940    22.96873   10.84831 
N    3.10701    23.95616   11.63763 
C    3.65178    25.04717   11.09710 
C    3.79975    25.18377   9.72377  
C    3.37103    24.16746   8.89054  
C    -1.27506   11.41946   6.75747  
C    -1.92182   10.33575   7.31888  
C    -2.22418   10.35654   8.67234  
N    -1.90760   11.39488   9.44949  
C    -1.28426   12.44714   8.92390  
H    0.36911    15.93100   4.94609  
H    1.90961    15.18142   5.36553  
H    0.38593    17.20710   7.07702  
H    1.90002    16.42600   7.55242  
H    3.00748    17.35853   5.51428  
H    1.52667    18.21614   5.10227  
H    3.32886    19.57831   6.25773  
H    3.05832    18.62117   7.71361  
H    0.97356    20.34987   6.28496  
H    0.66585    19.40349   7.75406  
H    2.24912    22.09532   11.33068 
H    3.97601    25.82729   11.78180 
H    4.24502    26.07768   9.31788  
H    3.47169    24.24504   7.81922  
H    -1.02385   11.43722   5.70852  
H    -2.19051   9.48146    6.71895  
H    -2.73377   9.51930    9.14734  
H    -1.04617   13.26940   9.59660  
C    -5.65327   13.96818   10.66858 
C    -5.86666   15.36067   10.66660 
C    -6.15342   16.53217   10.62844 
C    -6.49131   17.92939   10.56586 
C    -5.33316   18.85573   10.95725 
C    -5.73674   20.31968   10.77970 
C    -4.60315   21.30661   11.06035 
C    -4.29082   21.43677   12.55974 
C    -3.23052   22.38505   12.78822 
C    -2.33938   23.18078   12.95076 
C    -1.30059   24.10949   13.16577 
C    0.02070    23.67207   13.28086 
N    1.03686    24.50673   13.48826 
C    0.80432    25.81600   13.59367 
C    -0.47727   26.33901   13.49117 
C    -1.54311   25.48570   13.27482 
C    -6.70089   13.09053   10.35185 
C    -6.46299   11.72991   10.35254 
C    -5.19394   11.26637   10.66622 
N    -4.19474   12.09810   10.96969 
C    -4.40769   13.41216   10.97410 
H    -7.34771   18.10554   11.22339 
H    -6.81260   18.15120   9.54343  
H    -5.05496   18.65694   11.99452 
H    -4.46749   18.63681   10.32643 
H    -6.06422   20.46673   9.74860  
H    -6.58510   20.54721   11.42788 
H    -4.88981   22.28879   10.68205 
H    -3.70205   20.99501   10.52611 
H    -5.18447   21.77826   13.08849 
H    -3.99236   20.46932   12.97223 
H    0.25419    22.60970   13.20303 
H    1.66577    26.45758   13.76400 
H    -0.63226   27.40203   13.58078 
H    -2.55061   25.86222   13.19085 
H    -7.67517   13.48639   10.11135 
H    -7.24844   11.03183   10.11235 
H    -4.97119   10.20030   10.67474 
H    -3.56283   14.05043   11.22741 
C    -3.04920   11.98040   15.55468 
C    -2.79999   13.00804   16.48546 
C    -2.63835   13.82407   17.35957 
C    -2.46192   14.80431   18.39795 
C    -1.75235   16.07762   17.92064 
C    -1.68115   17.10522   19.05051 
C    -1.07674   18.44355   18.62483 
C    0.44411    18.36565   18.41586 
C    0.98133    19.64663   18.03348 
C    1.40464    20.72873   17.71161 
C    1.92519    21.98451   17.33753 
C    2.13263    22.28625   15.98985 
N    2.62980    23.45282   15.58436 
C    2.94712    24.38365   16.48554 
C    2.77100    24.17097   17.84581 
C    2.25660    22.96470   18.28308 
C    -3.68007   10.79476   15.96015 
C    -3.91747   9.80496    15.02644 
C    -3.52553   10.00873   13.71169 
N    -2.92477   11.13541   13.32185 
C    -2.68891   12.09918   14.20930 
H    -1.89418   14.34423   19.21210 
H    -3.45125   15.05783   18.79129 
H    -0.74970   15.81658   17.57489 
H    -2.30231   16.50147   17.07620 
H    -2.69375   17.29314   19.41293 
H    -1.10650   16.69535   19.88326 
H    -1.28015   19.18397   19.39962 
H    -1.55380   18.78723   17.70360 
H    0.92271    18.05039   19.34667 
H    0.68499    17.63648   17.63774 
H    1.88703    21.55303   15.22082 
H    3.35107    25.31943   16.10643 
H    3.03632    24.94377   18.54900 
H    2.10976    22.76932   19.33387 
H    -3.97174   10.67043   16.99126 
H    -4.40075   8.88378    15.30894 
H    -3.69714   9.24957    12.94976 
H    -2.19799   12.99981   13.84433 
Pd   -2.40606   11.29167   11.39007 
Pd   2.88030    23.73318   13.61615 
