134

C    2.13557    11.58713   12.12753 
C    3.23844    12.42525   12.39012 
C    4.22292    13.08441   12.61486 
C    5.39979    13.87107   12.88209 
C    5.09529    15.36834   13.01071 
C    6.38128    16.15303   13.29731 
C    6.14977    17.56927   13.42296 
C    5.95391    18.75410   13.53075 
C    5.80062    20.14877   13.66796 
C    4.54649    20.75176   13.54748 
N    4.37130    22.06566   13.67297 
C    5.42031    22.85144   13.92331 
C    6.70238    22.33807   14.05766 
C    6.90164    20.97649   13.93009 
C    2.29941    10.20227   11.98040 
C    1.19080    9.41851    11.72257 
C    -0.05468   10.02041   11.61461 
N    -0.21290   11.33812   11.75382 
C    0.84501    12.10698   12.00380 
H    6.11425    13.70176   12.07083 
H    5.85455    13.49989   13.80554 
H    4.64401    15.73128   12.08402 
H    4.38060    15.52849   13.82164 
H    7.10477    15.99574   12.49167 
H    6.83871    15.79853   14.22584 
H    3.66152    20.14971   13.34341 
H    5.22703    23.91832   14.01832 
H    7.52925    22.99962   14.25924 
H    7.88557    20.54530   14.02877 
H    3.28207    9.76600    12.06923 
H    1.28552    8.35113    11.60514 
H    -0.94904   9.43409    11.41162 
H    0.66764    13.17668   12.11096 
C    -0.96214   13.68801   7.76201  
C    -0.37316   14.87701   7.28536  
C    0.12559    15.86779   6.81213  
C    0.72387    17.05048   6.24770  
C    1.07936    18.09823   7.30930  
C    1.71842    19.32832   6.65349  
C    2.06354    20.34960   7.60906  
C    2.35209    21.20359   8.40999  
C    2.71539    22.24571   9.28729  
C    2.51638    22.13166   10.66513 
N    2.85095    23.09865   11.51710 
C    3.39741    24.22548   11.05648 
C    3.63024    24.42476   9.70321  
C    3.28905    23.43100   8.80553  
C    -1.34151   12.66568   6.88036  
C    -1.91323   11.51598   7.39136  
C    -2.09812   11.40221   8.76176  
N    -1.73934   12.37443   9.60254  
C    -1.18651   13.48809   9.12614  
H    0.02296    17.47411   5.52207  
H    1.62299    16.74934   5.70153  
H    0.17543    18.39751   7.84543  
H    1.77535    17.66577   8.03228  
H    1.03077    19.76400   5.92231  
H    2.62865    19.03915   6.11950  
H    2.07290    21.22986   11.08630 
H    3.65441    24.98633   11.79111 
H    4.07285    25.34679   9.36274  
H    3.45705    23.55412   7.74704  
H    -1.18405   12.78607   5.81993  
H    -2.21441   10.71286   6.73842  
H    -2.54445   10.51070   9.19872  
H    -0.90884   14.25391   9.84977  
C    -5.29974   14.86008   11.41542 
C    -5.45554   16.25340   11.56345 
C    -5.65262   17.43731   11.68057 
C    -5.88600   18.85203   11.81927 
C    -4.59736   19.63948   12.08518 
C    -4.90320   21.13610   12.21859 
C    -3.72452   21.92386   12.47427 
C    -2.73786   22.58349   12.68719 
C    -1.63286   23.42244   12.93750 
C    -0.34250   22.90224   13.06148 
N    0.71746    23.67240   13.29849 
C    0.56131    24.99163   13.42463 
C    -0.68393   25.59389   13.31610 
C    -1.79453   24.80889   13.07103 
C    -6.40094   14.03172   11.15566 
C    -6.20003   12.67141   11.01774 
C    -4.91622   12.15969   11.14101 
N    -3.86696   12.94604   11.38900 
C    -4.04353   14.25889   11.52305 
H    -6.59421   19.00241   12.63971 
H    -6.36249   19.21031   10.90171 
H    -4.13022   19.27775   13.00444 
H    -3.89543   19.48126   11.26281 
H    -5.60914   21.30350   13.03771 
H    -5.36847   21.50746   11.30052 
H    -0.16689   21.83127   12.96552 
H    1.45722    25.57906   13.61736 
H    -0.77693   26.66247   13.42307 
H    -2.77710   25.24525   12.98180 
H    -7.38642   14.46153   11.06675 
H    -7.02696   12.00963   10.81703 
H    -4.72162   11.09368   11.03887 
H    -3.15803   14.86157   11.72319 
C    -2.17709   12.74623   15.77282 
C    -1.80529   13.78345   16.65235 
C    -1.50781   14.63471   17.45295 
C    -1.15332   15.65255   18.40881 
C    -0.54148   16.89432   17.74924 
C    -0.19244   17.94551   18.80964 
C    0.39285    19.13377   18.24324 
C    0.88400    20.12786   17.76911 
C    1.46103    21.32249   17.29189 
C    1.69546    21.51928   15.92904 
N    2.23798    22.63805   15.45266 
C    2.57697    23.61822   16.29230 
C    2.38072    23.50817   17.66145 
C    1.81862    22.35370   18.17231 
C    -2.73812   11.55464   16.25400 
C    -3.08793   10.56592   15.35402 
C    -2.87445   10.77575   13.99916 
N    -2.33947   11.90841   13.53918 
C    -1.99831   12.87125   14.39317 
H    -0.44609   15.21924   19.12250 
H    -2.05548   15.92792   18.96348 
H    0.36158    16.61132   17.20291 
H    -1.25199   17.31701   17.03468 
H    0.51506    17.52866   19.53283 
H    -1.09252   18.23779   19.35898 
H    1.43516    20.74647   15.20646 
H    3.01661    24.51305   15.85546 
H    2.66563    24.31790   18.31348 
H    1.65243    22.23602   19.23172 
H    -2.88999   11.42280   17.31390 
H    -3.52188   9.63957    15.69400 
H    -3.13800   10.01897   13.26262 
H    -1.56636   13.77875   13.97223 
Pd   -2.03911   12.14431   11.57125 
Pd   2.54369    22.86704   13.48449 
