138

C    6.85412    21.00618   14.23450 
C    6.68667    22.37511   14.31834 
C    5.43013    22.92135   14.09588 
N    4.37522    22.15864   13.80119 
C    4.51932    20.83855   13.71520 
C    5.74665    20.20205   13.92458 
C    5.85619    18.80369   13.82774 
C    5.97451    17.60221   13.75100 
C    6.12424    16.20318   13.66633 
C    5.03247    15.39727   13.34736 
C    5.19402    14.01501   13.26720 
C    6.44913    13.44284   13.50765 
C    7.52707    14.24993   13.82389 
C    7.37578    15.62247   13.90480 
C    4.09857    13.18845   12.94494 
C    3.16612    12.46892   12.66864 
C    2.09991    11.60877   12.35213 
C    0.81458    12.11442   12.13339 
N    -0.21982   11.33218   11.83535 
C    -0.04417   10.01282   11.73581 
C    1.19706    9.42436    11.93498 
C    2.28195    10.22144   12.24612 
H    7.81786    20.55168   14.40314 
H    7.51873    23.01855   14.55439 
H    5.26216    23.99490   14.15467 
H    3.63147    20.25543   13.47112 
H    4.06516    15.84227   13.16208 
H    6.56644    12.37232   13.44438 
H    8.49239    13.80593   14.00848 
H    8.21618    16.25251   14.15091 
H    0.62546    13.18546   12.20410 
H    -0.92000   9.41540    11.49052 
H    1.30601    8.35554    11.84671 
H    3.25920    9.79389    12.40723 
C    3.51206    23.38928   8.84502  
C    3.83874    24.40687   9.72066  
C    3.55327    24.25972   11.07109 
N    2.97013    23.15859   11.54944 
C    2.64892    22.16891   10.71982 
C    2.89864    22.23056   9.34534  
C    2.54415    21.16314   8.50171  
C    2.24670    20.25805   7.75610  
C    1.90734    19.21065   6.87592  
C    1.30447    18.05128   7.36133  
C    0.97394    17.02328   6.47975  
C    1.24831    17.15889   5.11343  
C    1.84688    18.31266   4.64028  
C    2.17805    19.33765   5.50805  
C    0.36281    15.84620   6.95730  
C    -0.16373   14.83263   7.35608  
C    -0.77596   13.64504   7.79386  
C    -1.06677   13.44835   9.14755  
N    -1.64669   12.33944   9.59994  
C    -1.97056   11.36659   8.74539  
C    -1.71862   11.47599   7.38482  
C    -1.11718   12.62058   6.89771  
H    3.72110    23.47387   7.79006  
H    4.31082    25.30873   9.36591  
H    3.79672    25.04091   11.78846 
H    2.17435    21.28909   11.15414 
H    1.09409    17.94993   8.41655  
H    0.98969    16.35912   4.43721  
H    2.05682    18.41384   3.58730  
H    2.64471    20.23780   5.13963  
H    -0.81943   14.21612   9.88046  
H    -2.44306   10.47973   9.16312  
H    -1.99233   10.67214   6.72076  
H    -0.90857   12.73551   5.84553  
C    -1.73096   24.91339   12.78301 
C    -0.64144   25.70940   13.08038 
C    0.59659    25.11730   13.28862 
N    0.76491    23.79558   13.20953 
C    -0.27395   23.01438   12.92472 
C    -1.55679   23.52350   12.69977 
C    -2.62810   22.66373   12.40000 
C    -3.56482   21.94312   12.14153 
C    -4.66275   21.11344   11.83635 
C    -4.49700   19.73201   11.74984 
C    -5.59074   18.92256   11.44705 
C    -6.84837   19.49894   11.23098 
C    -7.00395   20.87054   11.31881 
C    -5.92410   21.68112   11.61926 
C    -5.43823   17.52409   11.35753 
C    -5.31996   16.32269   11.27906 
C    -5.21141   14.92421   11.18272 
C    -3.97962   14.28836   11.36710 
N    -3.83758   12.96793   11.28302 
C    -4.89870   12.20431   11.01399 
C    -6.15970   12.74983   10.81674 
C    -6.32533   14.11904   10.89980 
H    -2.70583   25.34391   12.61541 
H    -0.74428   26.78012   13.15129 
H    1.47582    25.71371   13.52433 
H    -0.09047   21.94143   12.87109 
H    -3.52487   19.29051   11.91736 
H    -7.69005   18.86611   10.99673 
H    -7.97412   21.31104   11.15214 
H    -6.04489   22.75091   11.68836 
H    -3.08660   14.87260   11.58866 
H    -4.73206   11.13052   10.95587 
H    -6.99678   12.10572   10.60115 
H    -7.29254   14.57312   10.75101 
C    1.63056    22.51291   18.16044 
C    2.21481    23.66583   17.67210 
C    2.47369    23.77369   16.31265 
N    2.17150    22.79200   15.46037 
C    1.60780    21.67516   15.91397 
C    1.31292    21.47875   17.26670 
C    0.71985    20.28215   17.70640 
C    0.21204    19.26160   18.11155 
C    -0.38108   18.07643   18.59179 
C    -0.71822   17.05134   17.70933 
C    -1.30552   15.88502   18.19714 
C    -1.55377   15.74794   19.56830 
C    -1.21528   16.76970   20.43706 
C    -0.63217   17.93038   19.96151 
C    -1.65063   14.84014   17.31617 
C    -1.95278   13.93690   16.57026 
C    -2.30992   12.87087   15.72596 
C    -2.08651   12.94566   14.34752 
N    -2.40869   11.95728   13.51688 
C    -2.96831   10.84505   13.99778 
C    -3.22729   10.68467   15.35196 
C    -2.89801   11.70031   16.22899 
H    1.41745    22.39898   19.21183 
H    2.47010    24.47730   18.33422 
H    2.93361    24.66672   15.89405 
H    1.37790    20.90062   15.18252 
H    -0.52557   17.16055   16.65150 
H    -2.00892   14.84256   19.93831 
H    -1.40754   16.66065   21.49262 
H    -0.36795   18.72760   20.63857 
H    -1.63328   13.83563   13.91116 
H    -3.21390   10.06564   13.27920 
H    -3.68050   9.77400    15.70880 
H    -3.08583   11.60526   17.28705 
Pd   -2.03225   12.14195   11.55683 
Pd   2.57238    22.98267   13.50576 
