150

C    3.60625    16.02109   12.91120 
C    4.97277    15.44393   13.11891 
C    6.07442    16.24936   13.43037 
C    5.93981    17.64635   13.56251 
C    5.85685    18.84737   13.68602 
C    5.76816    20.24294   13.82675 
C    6.89150    21.02882   14.12706 
C    6.73913    22.39616   14.25235 
C    5.48254    22.96051   14.07823 
N    4.41299    22.21554   13.79277 
C    4.54214    20.89680   13.66954 
C    7.34124    15.68112   13.62040 
C    7.51853    14.31601   13.50341 
C    6.44226    13.50313   13.19826 
C    5.17378    14.06094   13.00727 
C    4.09167    13.21170   12.70164 
C    3.17361    12.46807   12.44036 
C    2.11610    11.59202   12.14104 
C    0.81065    12.07387   12.00306 
N    -0.21936   11.27941   11.72224 
C    -0.01954   9.96988    11.56135 
C    1.24299    9.40451    11.67956 
C    2.32347    10.21434   11.97172 
H    3.64122    17.10748   12.92880 
H    2.93287    15.67677   13.69683 
H    3.20135    15.69152   11.95476 
H    7.85530    20.56172   14.25600 
H    7.58345    23.02547   14.48285 
H    5.32674    24.03327   14.16940 
H    3.64119    20.32854   13.43684 
H    8.17503    16.32281   13.85892 
H    8.49541    13.88443   13.65042 
H    6.56962    12.43587   13.10580 
H    0.60073    13.13652   12.12669 
H    -0.89216   9.36185    11.33241 
H    1.37131    8.34287    11.54362 
H    3.31636    9.80424    12.07030 
C    0.88985    17.88528   8.92129  
C    1.22184    18.05081   7.47009  
C    1.85044    19.20250   6.98268  
C    2.20005    20.26141   7.84506  
C    2.51389    21.18791   8.55765  
C    2.87916    22.26826   9.37903  
C    3.48838    23.42006   8.85751  
C    3.82642    24.44747   9.71690  
C    3.55739    24.31784   11.07289 
N    2.97779    23.22414   11.57112 
C    2.64521    22.22533   10.75701 
C    2.14839    19.32832   5.61904  
C    1.82415    18.31543   4.73735  
C    1.20153    17.17024   5.19921  
C    0.90068    17.03513   6.55848  
C    0.26679    15.85912   7.00642  
C    -0.27866   14.84494   7.37802  
C    -0.90876   13.65907   7.79278  
C    -1.16754   13.42775   9.14740  
N    -1.75676   12.31722   9.58385  
C    -2.12489   11.37739   8.71096  
C    -1.90961   11.52364   7.34721  
C    -1.29681   12.66903   6.87688  
H    1.18733    18.76494   9.48647  
H    1.40377    17.01274   9.32516  
H    -0.18187   17.72901   9.04412  
H    3.68531    23.49155   7.79929  
H    4.29542    25.34422   9.34551  
H    3.81129    25.10661   11.77771 
H    2.17345    21.35211   11.20842 
H    2.63373    20.22538   5.26745  
H    2.05596    18.41775   3.68950  
H    0.94360    16.37361   4.51901  
H    -0.88479   14.16854   9.89565  
H    -2.60326   10.48799   9.11556  
H    -2.21951   10.74620   6.66780  
H    -1.11438   12.81055   5.82312  
C    -3.09587   18.99553   12.17494 
C    -4.44052   19.63719   12.02067 
C    -4.61341   21.02245   12.12264 
C    -3.51998   21.87520   12.37642 
C    -2.60291   22.63508   12.59139 
C    -1.54297   23.52249   12.84494 
C    -1.74393   24.90876   12.93212 
C    -0.66142   25.72848   13.18672 
C    0.59653    25.16437   13.35160 
N    0.79028    23.84677   13.26871 
C    -0.24134   23.04310   13.02218 
C    -5.88389   21.59459   11.97278 
C    -6.98339   20.79675   11.72144 
C    -6.83281   19.42624   11.61468 
C    -5.56865   18.84596   11.76195 
C    -5.43879   17.44786   11.64396 
C    -5.34252   16.24642   11.53783 
C    -5.24745   14.85004   11.40991 
C    -4.00763   14.20985   11.50274 
N    -3.87303   12.89099   11.38705 
C    -4.95024   12.13265   11.17413 
C    -6.22056   12.68279   11.06838 
C    -6.37875   14.05019   11.18604 
H    -2.34878   19.73222   12.45942 
H    -2.79437   18.53119   11.23552 
H    -3.13751   18.21607   12.93537 
H    -2.73353   25.31772   12.80103 
H    -0.78476   26.79695   13.25892 
H    1.47025    25.77997   13.55432 
H    -0.03549   21.97411   12.96149 
H    -5.99193   22.66474   12.05649 
H    -7.95842   21.24236   11.60768 
H    -7.68462   18.79450   11.41685 
H    -3.10056   14.78986   11.67435 
H    -4.78952   11.06019   11.08669 
H    -7.07078   12.04293   10.89584 
H    -7.35300   14.50690   11.10860 
C    -0.35632   17.11541   16.14540 
C    -0.61354   17.00245   17.61671 
C    -0.29497   18.03726   18.50370 
C    0.28867    19.23544   18.04433 
C    0.79227    20.27546   17.68452 
C    1.37843    21.48440   17.27186 
C    1.69196    22.50362   18.18427 
C    2.26891    23.66840   17.71625 
C    2.52503    23.80412   16.35841 
N    2.22778    22.83664   15.48888 
C    1.67125    21.70849   15.92299 
C    -0.55005   17.90341   19.87521 
C    -1.11951   16.74585   20.36954 
C    -1.44107   15.71185   19.50933 
C    -1.19124   15.83650   18.13873 
C    -1.52927   14.77133   17.28045 
C    -1.82681   13.85025   16.55429 
C    -2.17990   12.76993   15.72751 
C    -2.00637   12.84872   14.34220 
N    -2.33209   11.85238   13.52242 
C    -2.84415   10.72588   14.02191 
C    -3.04955   10.55928   15.38487 
C    -2.71809   11.58387   16.25039 
H    0.14930    18.04954   15.91413 
H    -1.29860   17.07792   15.59807 
H    0.26011    16.28246   15.80786 
H    1.48169    22.36898   19.23372 
H    2.52093    24.46864   18.39309 
H    2.97828    24.70739   15.95583 
H    1.44574    20.94608   15.17694 
H    -0.29597   18.71501   20.53902 
H    -1.31305   16.64840   21.42559 
H    -1.88594   14.80377   19.88523 
H    -1.59209   13.75022   13.89030 
H    -3.09444   9.94030    13.31211 
H    -3.46472   9.63667    15.75697 
H    -2.86707   11.48448   17.31419 
Pd   -2.05161   12.07273   11.55051 
Pd   2.60802    23.04639   13.53239 
