459

O    17.65980   7.46272    10.80897 
C    17.90677   6.33053    11.19979 
C    18.31270   5.34796    10.28780 
C    18.45174   5.66618    8.92531  
C    18.80124   4.67812    8.00809  
C    18.94544   5.01349    6.63012  
C    19.07479   5.22482    5.46156  
C    19.25534   5.56819    4.09397  
C    18.82058   4.76287    3.04581  
C    17.96810   3.68500    3.18509  
N    17.53259   3.10083    1.98631  
C    18.19386   3.37857    0.97923  
C    18.99709   4.41632    0.72144  
C    19.23789   5.15239    1.73032  
C    19.86868   6.33409    1.46192  
C    20.18044   7.16636    2.50134  
C    19.92291   6.77015    3.81361  
C    19.04126   3.38050    8.42117  
C    18.95051   3.05381    9.76951  
C    18.59568   4.03058    10.74097 
N    18.52271   3.73117    12.09105 
C    19.03393   2.41930    12.58356 
C    17.95434   1.36390    12.58198 
C    18.42677   0.01638    13.17182 
C    17.39100   -1.13593   13.10884 
C    17.74615   -2.39010   13.86921 
C    17.93130   -2.10936   15.33302 
C    18.05785   4.68396    12.98974 
C    17.75933   6.00559    12.55487 
C    17.34550   6.98222    13.49568 
C    17.17068   6.64384    14.84808 
C    16.81516   7.65591    15.81682 
C    16.56148   8.62388    16.47989 
C    16.16444   9.69579    17.34424 
C    16.98707   10.83904   17.36002 
C    16.70911   11.90395   18.21888 
C    15.65446   11.82789   19.09345 
C    14.85948   10.72380   19.07884 
C    15.05376   9.63335    18.19602 
C    13.95304   8.59020    18.14555 
N    12.95178   8.79084    18.93856 
C    13.05620   9.75493    19.93890 
C    13.83103   10.71680   20.02020 
C    17.41833   5.34584    15.26388 
C    17.85946   4.38539    14.36248 
H    18.27168   6.67124    8.56493  
H    17.55251   3.36748    4.12632  
H    17.92323   3.19625    0.28319  
H    19.22013   4.65088    -0.33922 
H    20.07480   6.62224    0.43343  
H    20.64361   8.10754    2.27193  
H    20.23667   7.41639    4.61491  
H    19.32112   2.60957    7.70646  
H    19.14396   2.02127    10.01848 
H    19.91348   2.08659    12.00248 
H    19.46321   2.51263    13.59713 
H    17.17993   1.80547    13.23562 
H    17.61491   1.23112    11.53516 
H    19.32177   -0.32130   12.61665 
H    18.66198   0.22795    14.22922 
H    16.45972   -0.90326   13.64822 
H    17.20658   -1.40345   12.04395 
H    18.60125   -2.91652   13.40287 
H    16.83253   -3.00421   13.88643 
H    17.91887   -3.07194   15.87569 
H    18.88494   -1.58075   15.46058 
H    17.07834   -1.48931   15.69856 
H    17.15206   8.00488    13.17974 
H    17.85028   10.89610   16.71343 
H    17.30680   12.79189   18.23314 
H    15.42415   12.63659   19.77723 
H    13.90786   7.83598    17.37082 
H    12.51138   9.80538    20.66805 
H    13.67699   11.45030   20.82081 
H    17.30422   5.07844    16.30479 
H    18.02204   3.40937    14.78229 
O    15.21227   1.44041    12.04462 
C    14.07301   1.06361    11.84974 
C    13.71758   0.53972    10.60282 
C    14.67878   0.42921    9.58228  
C    14.31847   -0.03954   8.32538  
C    15.30801   -0.15080   7.31068  
C    16.07003   -0.26281   6.39406  
C    17.05560   -0.41866   5.37814  
C    16.83405   -0.08171   4.03142  
C    15.75009   0.63464    3.56967  
N    15.74241   0.99281    2.18392  
C    16.60899   0.47506    1.42031  
C    17.69495   -0.28753   1.82482  
C    17.85138   -0.45875   3.10451  
C    19.07142   -0.95671   3.50357  
C    19.31173   -1.16039   4.83748  
C    18.29795   -0.94050   5.76838  
C    13.00934   -0.42659   8.06321  
C    12.05330   -0.36455   9.07088  
C    12.38377   0.10875    10.37089 
N    11.45197   0.15635    11.39433 
C    10.12467   -0.49922   11.21335 
C    9.10789    0.45428    10.62611 
C    7.69859    -0.17223   10.51128 
C    6.63185    0.72081    9.82688  
C    5.20754    0.22774    9.89760  
C    4.74647    0.08740    11.32005 
C    11.78684   0.73547    12.61259 
C    13.11372   1.18309    12.86096 
C    13.45521   1.71457    14.12936 
C    12.48396   1.84445    15.13193 
C    12.87079   2.34003    16.42318 
C    13.30544   2.73024    17.47483 
C    13.78389   3.22725    18.72950 
C    14.84605   2.54638    19.35516 
C    15.31622   2.95555    20.60590 
C    14.71368   4.00102    21.26319 
C    13.68147   4.66520    20.66298 
C    13.20522   4.33911    19.37160 
C    12.22062   5.31044    18.75712 
N    11.87127   6.32654    19.48976 
C    12.24048   6.42661    20.82153 
C    13.10315   5.71787    21.41445 
C    11.17604   1.46402    14.87443 
C    10.83239   0.90848    13.64797 
H    15.70802   0.72254    9.74897  
H    14.97319   1.01616    4.22480  
H    16.82865   0.92292    0.56528  
H    18.44582   -0.51148   1.06958  
H    19.85137   -1.13352   2.76631  
H    20.28472   -1.51208   5.12838  
H    18.49202   -1.17109   6.80250  
H    12.72293   -0.79940   7.08267  
H    11.05677   -0.67502   8.79473  
H    10.20975   -1.41672   10.60161 
H    9.74760    -0.90819   12.16825 
H    9.09189    1.28290    11.35674 
H    9.47584    0.76778    9.63005  
H    7.76793    -1.10514   9.92045  
H    7.38283    -0.37401   11.54969 
H    6.47604    1.67687    10.35043 
H    6.90782    0.86497    8.75792  
H    5.06612    -0.68613   9.28898  
H    4.57898    1.06377    9.55388  
H    3.64558    -0.00834   11.32046 
H    5.23379    -0.79715   11.75038 
H    5.01883    1.00947    11.88685 
H    14.47578   2.02378    14.34361 
H    15.29967   1.69290    18.87663 
H    16.13614   2.46524    21.09089 
H    15.05564   4.32826    22.23799 
H    11.94571   5.25745    17.70390 
H    11.84541   7.08464    21.39093 
H    13.34329   5.94297    22.45183 
H    10.41965   1.55467    15.64110 
H    9.79752    0.63621    13.54600 
O    5.77240    15.62551   14.29086 
C    6.83303    15.92034   13.75817 
C    6.83744    16.53650   12.50041 
C    5.62284    16.83000   11.85580 
C    5.61828    17.39016   10.58589 
C    4.37802    17.68884   9.95368  
C    3.38786    17.96017   9.34049  
C    2.15250    18.29496   8.70715  
C    1.89872    18.07783   7.34997  
C    2.69508    17.32707   6.51160  
N    2.22759    17.11093   5.17177  
C    1.23262    17.77773   4.77946  
C    0.41903    18.58119   5.56208  
C    0.69092    18.63118   6.83161  
C    -0.27826   19.18515   7.63707  
C    -0.06163   19.27244   8.98763  
C    1.16288    18.87601   9.52231  
C    6.81309    17.69247   9.94144  
C    8.02482    17.44935   10.57819 
C    8.07015    16.87604   11.87926 
N    9.26525    16.64811   12.54024 
C    10.53050   17.21312   11.98914 
C    11.19555   16.26508   11.04851 
C    12.56462   16.75922   10.51734 
C    13.27315   15.87028   9.45945  
C    14.67703   16.21598   9.11099  
C    15.57130   16.16624   10.30725 
C    9.26906    15.97861   13.75794 
C    8.04625    15.62010   14.39118 
C    8.06644    14.99662   15.66306 
C    9.28680    14.69438   16.28540 
C    9.31117    14.10916   17.58787 
C    9.16551    13.65494   18.69213 
C    9.04712    13.05999   19.99765 
C    8.31519    13.75652   20.98339 
C    8.21526    13.26596   22.28986 
C    8.87528    12.11805   22.64554 
C    9.57737    11.43564   21.70431 
C    9.65603    11.84454   20.34688 
C    10.23046   10.86191   19.38210 
N    10.50882   9.69931    19.88902 
C    10.55040   9.47027    21.28995 
C    10.18503   10.25648   22.17208 
C    10.47715   14.98026   15.64459 
C    10.47586   15.62290   14.41407 
H    4.67285    16.60851   12.32588 
H    3.59143    16.81574   6.85441  
H    0.69173    17.41091   4.07134  
H    -0.50460   18.93860   5.10723  
H    -1.22579   19.50022   7.20589  
H    -0.84766   19.67297   9.60124  
H    1.33155    19.01611   10.57728 
H    6.81560    18.13759   8.94879  
H    8.91147    17.70208   10.01647 
H    10.36117   18.18544   11.49884 
H    11.23449   17.48365   12.79325 
H    11.35001   15.37108   11.69190 
H    10.50475   16.07464   10.19680 
H    12.41421   17.74236   10.04394 
H    13.20945   16.81978   11.40712 
H    13.51531   14.85727   9.83226  
H    12.65159   15.85665   8.53573  
H    14.71761   17.16290   8.55598  
H    15.07402   15.36387   8.56429  
H    16.61850   16.16744   9.95555  
H    15.34496   17.03881   10.92997 
H    15.38956   15.21592   10.86487 
H    7.13741    14.75128   16.17332 
H    7.82673    14.68908   20.73989 
H    7.64827    13.76983   23.04698 
H    8.81985    11.71814   23.65199 
H    10.23854   11.00697   18.29991 
H    11.17260   8.77353    21.68450 
H    10.33291   9.96146    23.20070 
H    11.42105   14.74683   16.11712 
H    11.44934   15.81652   14.00195 
O    3.26013    8.80328    12.18648 
C    4.33176    9.19033    11.75818 
C    5.49992    8.96569    12.50384 
C    5.46931    8.30875    13.72292 
C    6.63358    8.11227    14.45243 
C    6.49315    7.46460    15.68216 
C    6.26975    6.89890    16.69615 
C    6.14938    6.28809    17.96139 
C    7.09022    6.58779    18.95587 
C    8.20650    7.31161    18.66547 
N    9.23171    7.46149    19.61521 
C    8.99843    7.11347    20.85856 
C    7.74087    6.41406    21.23570 
C    6.87281    6.09607    20.26493 
C    5.76408    5.26067    20.52227 
C    4.90562    4.89610    19.47840 
C    5.08663    5.42984    18.20725 
C    7.86105    8.57933    14.01232 
C    7.91778    9.21553    12.79231 
C    6.71994    9.40143    12.00996 
N    6.72170    10.01579   10.79267 
C    7.94435    10.41677   10.29600 
C    8.13964    11.82427   10.95647 
C    9.35320    12.17316   10.34276 
C    10.14606   13.37369   10.57178 
C    11.44500   13.44479   9.73672  
C    11.35590   13.81426   8.25804  
C    5.61137    10.33141   10.06592 
C    4.38630    9.87960    10.53494 
C    3.24689    10.12654   9.77636  
C    3.32594    10.85817   8.59060  
C    2.13416    11.10584   7.89050  
C    1.08101    11.24195   7.36267  
C    -0.13070   11.54287   6.70266  
C    -1.04863   10.53823   6.41521  
C    -2.25982   10.86083   5.80414  
C    -2.57413   12.19265   5.52968  
C    -1.64808   13.19590   5.81327  
C    -0.40091   12.87084   6.36400  
C    0.67558    13.90057   6.34155  
N    0.43124    15.01282   5.74709  
C    -0.91797   15.45524   5.50747  
C    -1.93086   14.59125   5.49362  
C    4.52187    11.38469   8.14596  
C    5.66546    11.12533   8.86477  
H    4.53050    7.95560    14.11952 
H    8.40112    7.71261    17.68203 
H    9.72379    7.18497    21.64899 
H    7.58893    6.06500    22.25932 
H    5.58727    4.84363    21.50766 
H    4.09064    4.20657    19.64705 
H    4.41148    5.17360    17.40149 
H    8.76827    8.45233    14.59663 
H    8.91150    9.55886    12.50798 
H    8.70336    9.60308    10.45653 
H    7.96109    10.31714   9.17985  
H    7.42655    12.59141   10.62106 
H    8.26990    11.81936   12.07836 
H    9.90610    11.41418   10.93485 
H    8.99027    12.23593   9.27071  
H    9.49610    14.19589   10.25932 
H    10.45199   13.34779   11.64306 
H    12.32616   12.80514   9.98779  
H    11.75840   14.28654   10.12163 
H    12.34440   13.90333   7.71826  
H    10.89182   13.06433   7.80979  
H    10.49023   14.38607   7.91639  
H    2.29029    9.76731    10.12355 
H    -0.79960   9.50727    6.62177  
H    -2.95420   10.07791   5.54545  
H    -3.51048   12.43856   5.05135  
H    1.69862    13.55717   6.39706  
H    -1.13322   16.47698   5.23066  
H    -2.92745   14.91420   5.20396  
H    4.57113    11.97966   7.24123  
H    6.56055    11.58266   8.45067  
O    9.36338    11.27196   -1.67913 
C    10.09563   11.90666   -0.93374 
C    11.39285   11.44026   -0.66242 
C    11.85478   10.23265   -1.22888 
C    13.12687   9.74761    -0.91310 
C    13.63472   8.55499    -1.50806 
C    13.93971   7.55998    -2.09640 
C    14.37393   6.34599    -2.70287 
C    15.12891   5.35927    -2.03485 
C    15.31329   5.28139    -0.67618 
N    15.94454   4.07973    -0.23796 
C    16.41791   3.25509    -1.09672 
C    16.45365   3.39490    -2.40656 
C    15.68704   4.32550    -2.86564 
C    15.38357   4.19154    -4.18951 
C    14.52789   5.07910    -4.77906 
C    14.06071   6.17710    -4.06167 
C    13.96244   10.47124   -0.07499 
C    13.54265   11.68155   0.45944  
C    12.24786   12.19633   0.18285  
N    11.81321   13.39806   0.70873  
C    12.76501   14.26217   1.43737  
C    12.82916   13.90895   2.91365  
C    13.78251   14.88806   3.58737  
C    13.97490   14.57192   5.04005  
C    14.77110   15.59435   5.77655  
C    14.07326   16.95306   5.79090  
C    10.51307   13.82602   0.50963  
C    9.63704    13.09482   -0.33106 
C    8.32889    13.59141   -0.55608 
C    7.89084    14.77802   0.07626  
C    6.57798    15.28657   -0.19762 
C    5.47691    15.61275   -0.53832 
C    4.14167    16.04311   -0.77670 
C    3.79417    16.22402   -2.11581 
C    2.55289    16.72486   -2.48447 
C    1.65536    17.08628   -1.52399 
C    1.97629    16.89979   -0.20527 
C    3.19385    16.33546   0.24305  
C    3.26453    15.97050   1.72441  
N    2.19475    16.21151   2.44302  
C    1.06075    16.88468   1.88359  
C    0.94366    17.23296   0.67773  
C    8.71926    15.44151   0.94810  
C    10.00937   14.99307   1.14767  
H    11.22766   9.64523    -1.88088 
H    14.87834   5.98708    0.02962  
H    16.78146   2.27438    -0.76942 
H    16.92043   2.57804    -2.92992 
H    15.76318   3.33768    -4.74249 
H    14.25874   4.90960    -5.80683 
H    13.44031   6.89295    -4.58752 
H    14.96430   10.11377   0.16606  
H    14.24976   12.18191   1.10517  
H    13.76488   14.23588   0.95709  
H    12.53804   15.33468   1.27750  
H    11.81298   14.00245   3.35979  
H    13.17744   12.86383   3.03934  
H    14.78167   14.87086   3.11222  
H    13.32581   15.89061   3.49390  
H    12.97816   14.59248   5.54034  
H    14.50352   13.58610   5.15334  
H    15.83257   15.66116   5.47500  
H    14.75037   15.14359   6.73007  
H    14.51994   17.64291   6.52197  
H    14.20475   17.41926   4.80185  
H    12.98862   16.83763   6.02334  
H    7.65478    13.03882   -1.21928 
H    4.49648    15.97888   -2.88859 
H    2.27091    16.84119   -3.51322 
H    0.67417    17.47055   -1.79149 
H    4.08730    15.36835   2.12553  
H    0.14179    17.09397   2.35947  
H    0.01071    17.69873   0.37717  
H    8.35733    16.32791   1.43259  
H    10.57584   15.59578   1.82568  
O    5.84840    5.64830    2.11208  
C    6.56904    6.33212    2.82200  
C    6.08533    7.52457    3.37034  
C    4.78144    7.93162    3.13175  
C    4.30662    9.11450    3.65512  
C    3.01736    9.50133    3.28124  
C    1.94560    9.91098    3.00591  
C    0.64317    10.31347   2.65546  
C    0.32069    11.67110   2.60271  
C    1.18306    12.63838   3.05012  
N    0.76474    13.99801   3.08945  
C    -0.37056   14.31801   2.53875  
C    -1.26715   13.31426   1.96253  
C    -0.94527   12.02880   2.07895  
C    -1.87238   11.04230   1.70740  
C    -1.56129   9.69478    1.87115  
C    -0.29511   9.32666    2.31901  
C    5.11042    9.95052    4.42262  
C    6.40563    9.54998    4.69718  
C    6.91286    8.31082    4.18255  
N    8.17978    7.86400    4.45319  
C    8.96574    8.60852    5.38405  
C    9.66663    9.67926    4.59936  
C    10.50711   10.29621   5.58880  
C    11.38583   11.33062   4.94962  
C    12.37811   11.78955   5.92902  
C    13.47532   10.91190   6.45809  
C    8.70689    6.72560    3.88788  
C    7.88003    5.92749    3.08020  
C    8.37122    4.73334    2.55588  
C    9.68533    4.35420    2.78267  
C    10.11747   3.15683    2.17362  
C    10.38901   2.12760    1.64042  
C    10.86366   0.97053    0.96895  
C    10.16850   -0.23750   1.03785  
C    10.69161   -1.37420   0.41513  
C    11.85911   -1.28486   -0.34588 
C    12.52470   -0.06170   -0.45110 
C    12.05672   1.06137    0.24683  
C    12.97020   2.22661    0.41525  
N    14.17022   2.11119    -0.01326 
C    14.50836   1.13080    -1.02575 
C    13.75340   0.06101    -1.22301 
C    10.54605   5.15149    3.52331  
C    10.06641   6.32473    4.08189  
H    4.13642    7.33589    2.49878  
H    2.16196    12.39954   3.45348  
H    -0.78199   15.29984   2.58491  
H    -2.22024   13.63327   1.55154  
H    -2.85405   11.31621   1.33819  
H    -2.29794   8.93800    1.63783  
H    -0.04909   8.27395    2.41433  
H    4.74192    10.90163   4.79444  
H    6.97965    10.24213   5.29775  
H    8.35862    8.97959    6.23970  
H    9.63645    7.93895    5.96169  
H    10.32867   9.24794    3.81787  
H    8.98201    10.43667   4.16371  
H    9.82252    10.73963   6.37289  
H    11.15039   9.47449    5.94949  
H    11.98487   10.94506   4.13134  
H    10.71151   12.18458   4.68517  
H    11.73089   11.96312   6.65685  
H    12.78116   12.67226   5.66638  
H    14.04663   11.36697   7.32535  
H    12.98737   10.02903   6.71984  
H    14.04228   10.32583   5.75751  
H    7.73613    4.09673    1.94895  
H    9.26408    -0.30945   1.62587  
H    10.19870   -2.32707   0.53393  
H    12.27359   -2.17533   -0.80340 
H    12.75273   2.95735    1.17505  
H    15.40605   1.16688    -1.62102 
H    14.07103   -0.71820   -1.91300 
H    11.57828   4.86220    3.68551  
H    10.79627   6.89378    4.64076  
Pd   15.65138   2.75758    1.24349  
Pd   11.06585   8.05236    18.93363 
Pd   1.71210    15.41749   4.22569  
