186

C    8.18947    15.39586   12.97410 
C    8.02745    16.77585   13.21529 
C    7.92508    17.96305   13.42500 
C    7.83175    19.34470   13.67413 
C    8.96398    20.08677   13.97233 
C    8.88363    21.46040   14.21927 
C    7.68040    22.11933   14.17379 
C    6.50396    21.40475   13.87355 
C    5.23815    22.01841   13.80886 
N    4.13244    21.36075   13.52993 
C    4.19464    20.02827   13.28969 
C    5.37035    19.33305   13.32498 
C    6.57239    20.00226   13.62055 
C    7.08387    14.57683   12.75141 
C    7.26634    13.21509   12.51675 
C    6.16121    12.36802   12.29405 
C    5.23572    11.61215   12.10415 
C    4.17400    10.71569   11.88346 
C    4.41654    9.36336    11.69995 
C    3.36848    8.46400    11.48308 
C    2.06458    8.89102    11.44533 
C    1.77174    10.25715   11.62614 
C    0.45780    10.76245   11.59888 
N    0.17282    12.03684   11.76550 
C    1.17849    12.92091   11.97396 
C    2.48967    12.53907   12.02005 
C    2.83251    11.18540   11.84721 
C    8.55861    12.67728   12.50299 
C    9.65088    13.49624   12.72295 
C    9.47730    14.84766   12.95876 
H    9.92184    19.59154   14.01381 
H    9.78683    22.00401   14.44843 
H    7.62323    23.17927   14.36505 
H    5.14767    23.08728   13.99581 
H    3.24896    19.53675   13.06253 
H    5.39385    18.27243   13.12833 
H    6.08695    14.99616   12.76361 
H    5.43332    9.00282    11.72632 
H    3.59707    7.41895    11.34467 
H    1.25908    8.19336    11.27878 
H    -0.37737   10.08348   11.43336 
H    0.88338    13.96166   12.10357 
H    3.27266    13.26225   12.18742 
H    8.69137    11.62236   12.32017 
H    10.64489   13.07774   12.71112 
H    10.32783   15.48860   13.13125 
C    1.55715    19.70343   4.83140  
C    2.00062    20.71119   5.71261  
C    2.39104    21.59648   6.43917  
C    2.85418    22.63753   7.26479  
C    3.43913    23.76824   6.71647  
C    3.90454    24.80707   7.52800  
C    3.79748    24.74104   8.89481  
C    3.20845    23.61080   9.49520  
C    3.06669    23.47849   10.88992 
N    2.51717    22.42757   11.46138 
C    2.05840    21.41419   10.68723 
C    2.14609    21.43825   9.32391  
C    2.72890    22.54411   8.67790  
C    1.01721    18.51519   5.32074  
C    0.58771    17.53154   4.43154  
C    0.04315    16.31966   4.90418  
C    -0.42688   15.26822   5.27480  
C    -0.97137   14.03697   5.68390  
C    -1.34504   13.08327   4.75005  
C    -1.88433   11.85584   5.14638  
C    -2.06042   11.55464   6.47382  
C    -1.69431   12.49442   7.45743  
C    -1.84531   12.24928   8.83570  
N    -1.50622   13.11975   9.76330  
C    -0.98685   14.31572   9.39430  
C    -0.79660   14.65729   8.08499  
C    -1.14453   13.75153   7.06596  
C    0.69832    17.74258   3.05216  
C    1.23398    18.92428   2.57396  
C    1.66414    19.90368   3.45021  
H    3.53560    23.84366   5.64434  
H    4.35391    25.67126   7.06428  
H    4.15868    25.54471   9.51691  
H    3.42289    24.27178   11.54521 
H    1.60964    20.57271   11.21439 
H    1.77293    20.61894   8.72928  
H    0.93401    18.35591   6.38725  
H    -1.21531   13.29562   3.70001  
H    -2.16352   11.13922   4.39000  
H    -2.47608   10.60602   6.77511  
H    -2.26019   11.30026   9.17209  
H    -0.72716   14.99668   10.20413 
H    -0.38118   15.61611   7.81642  
H    0.36287    16.97647   2.37065  
H    1.31744    19.08278   1.51034  
H    2.08346    20.82611   3.07972  
C    -6.63410   21.77106   12.61500 
C    -5.52428   22.62511   12.78157 
C    -4.59554   23.38720   12.92423 
C    -3.52891   24.28931   13.09241 
C    -3.76301   25.65244   13.18476 
C    -2.71033   26.55706   13.35198 
C    -1.41013   26.12445   13.43108 
C    -1.12601   24.74736   13.34353 
C    0.18360    24.23573   13.41950 
N    0.46083    22.95127   13.33884 
C    -0.54893   22.06244   13.17482 
C    -1.85663   22.44952   13.08983 
C    -2.19132   23.81381   13.17169 
C    -6.45696   20.40042   12.43387 
C    -7.56715   19.57401   12.26896 
C    -7.41076   18.18568   12.07755 
C    -7.31388   16.99094   11.91226 
C    -7.22526   15.60163   11.70808 
C    -8.36650   14.84326   11.49883 
C    -8.28930   13.46276   11.29264 
C    -7.08025   12.81308   11.29056 
C    -5.89445   13.54420   11.50049 
C    -4.62214   12.94111   11.51174 
N    -3.50787   13.61404   11.70823 
C    -3.56707   14.95265   11.91111 
C    -4.74843   15.63916   11.91957 
C    -5.95975   14.95363   11.71276 
C    -8.85423   20.12376   12.28921 
C    -9.02247   21.48414   12.47111 
C    -7.92559   22.31050   12.63276 
H    -4.77675   26.01749   13.12541 
H    -2.93225   27.61064   13.41901 
H    -0.60100   26.82597   13.55993 
H    1.02198    24.91826   13.55070 
H    -0.26032   21.01335   13.11607 
H    -2.64325   21.72235   12.96098 
H    -5.46057   19.97999   12.41796 
H    -9.32899   15.33120   11.49529 
H    -9.19962   12.90663   11.13252 
H    -7.02530   11.74790   11.13005 
H    -4.53341   11.86760   11.35261 
H    -2.61403   15.45683   12.06863 
H    -4.76940   16.70542   12.08337 
H    -9.70834   19.47711   12.16131 
H   -10.01600   21.90370   12.48598 
H    -8.05428   23.37232   12.77387 
C    0.07597    17.43419   20.74186 
C    0.56090    18.66979   20.26566 
C    0.97574    19.74363   19.89326 
C    1.46549    20.99668   19.48093 
C    1.76249    21.98054   20.41117 
C    2.24845    23.22931   20.01270 
C    2.44802    23.52162   18.68655 
C    2.16021    22.55111   17.70678 
C    2.34233    22.78458   16.33017 
N    2.07588    21.88586   15.40582 
C    1.60351    20.67104   15.77673 
C    1.39066    20.33774   17.08470 
C    1.66298    21.27286   18.10033 
C    -0.32297   16.43644   19.85414 
C    -0.80059   15.22254   20.34506 
C    -1.21253   14.20129   19.46413 
C    -1.58159   13.30583   18.73886 
C    -2.01772   12.25260   17.91407 
C    -2.52940   11.08818   18.46501 
C    -2.96943   10.03770   17.65439 
C    -2.90934   10.12533   16.28595 
C    -2.39526   11.29009   15.68274 
C    -2.30520   11.44610   14.28620 
N    -1.82556   12.52927   13.71199 
C    -1.39218   13.55455   14.48506 
C    -1.43472   13.50978   15.85002 
C    -1.94178   12.36891   16.49907 
C    -0.87496   15.01035   21.72661 
C    -0.47622   16.00426   22.60137 
C    -0.00333   17.21193   22.12161 
H    1.61374    21.77508   21.46004 
H    2.46772    23.96949   20.76625 
H    2.82316    24.48643   18.38347 
H    2.72009    23.74850   15.99252 
H    1.40281    19.96710   14.96966 
H    1.01551    19.36280   17.35474 
H    -0.26453   16.60495   18.78743 
H    -2.58795   10.99573   19.53857 
H    -3.36237   9.14763    18.12015 
H    -3.25118   9.31269    15.66452 
H    -2.64307   10.64410   13.63183 
H    -1.00445   14.42431   13.95547 
H    -1.08363   14.33958   16.44363 
H    -1.24509   14.06761   22.09846 
H    -0.53487   15.83661   23.66524 
H    0.30793    17.98900   22.80220 
Pd   -1.68383   12.78761   11.73037 
Pd   2.31265    22.19478   13.44067 
