106
Coordinates from ORCA-job cage
  C   4.63334136321012     16.75645955992588     13.14999271892444
  C   4.75256545450937     18.20560077154651     13.30227079631642
  C   3.57205151445348     18.94453390437796     13.20347094908736
  N   3.55121190487695     20.27289976600698     13.32995245764286
  C   4.68793053658156     20.94742526734358     13.55998792887285
  C   5.90377376645516     20.28469149788158     13.66650034212224
  C   5.94453886081302     18.90005984015088     13.53521501873772
  N   3.50017194477038     16.13484727367667     12.86975206693790
  C   3.85115503923617     14.82899297400949     12.82917114134799
  C   2.88246296909947     13.76954016252452     12.54544583584698
  C   3.21589327977361     12.41331441312311     12.46570956351533
  C   2.21487502414972     11.48814625478172     12.18939941216881
  C   0.90939204754245     11.92774357955553     12.00025018826076
  N   0.60117169276823     13.22976698588793     12.07947691977088
  C   1.55239156314154     14.13087600676491     12.34319026407122
  N   5.13717530212788     14.61275061997642     13.06982712052779
  N   5.61373912796117     15.83657969367671     13.26987491588191
  H   2.62444421092061     18.43422794807995     13.01719778145763
  H   4.61113937314422     22.03249391320068     13.65660396976640
  H   6.81352627270037     20.85788186919673     13.84985109327762
  H   6.90064361437479     18.37760906610570     13.61145649265655
  H   4.24856430464515     12.09261000527923     12.61807018670152
  H   2.43715578567503     10.42246811321167     12.11868739543260
  H   0.09263342017194     11.23626829583339     11.78253978960838
  H   1.25620423773258     15.18051580606304     12.40064137254530
  H   6.59821804213155     15.96907378227331     13.48807511565228
  C   1.35528649420752     19.03961034150041      8.35807264206264
  C   1.80533802208046     20.25739212117455      9.03066017892353
  C   1.66600400658705     20.28657876135802     10.41907019100421
  N   2.03215254076925     21.33993230841939     11.15138993277889
  C   2.55704257962422     22.42316096322662     10.55928818156252
  C   2.73149375294190     22.47053030070520      9.18198814865986
  C   2.35487852333154     21.38054790369651      8.40267146256986
  N   0.82685130262884     18.00280987845222      8.98738472640022
  C   0.56128988591280     17.12481544819961      7.99328711857314
  C   -0.04220925313392     15.81568640673693      8.24470437021791
  C   -0.33538500433148     14.89465459511886      7.23335783099369
  C   -0.90956491157751     13.67569320468140      7.57690897575474
  C   -1.17889329662118     13.39940147617579      8.91243531184057
  N   -0.89514250989369     14.28951748941483      9.87385386068327
  C   -0.34389164575204     15.46596105794208      9.55924285518825
  N   0.89719348632281     17.56365426714862      6.78770496828587
  N   1.39476558411429     18.76976356242270      7.03663753875007
  H   1.24340506303707     19.42459194514024     10.93970598073229
  H   2.83707647667708     23.25692715335667     11.20664424399116
  H   3.16182601621599     23.36329445336483      8.72628109721338
  H   2.49047150514402     21.41748333142715      7.31943928459133
  H   -0.11389361540896     15.13633579021255      6.19172209978066
  H   -1.15240400897409     12.93275447268026      6.81587163991830
  H   -1.62861745599788     12.45547183731705      9.22770995324966
  H   -0.13156379907284     16.16134688686100     10.37435178398133
  H   1.73964233007488     19.34597580852406      6.27288385081529
  C   -3.36696174491365     20.29757769059237     12.21080193287542
  C   -2.42706839892509     21.37885469013382     12.50181706799539
  C   -1.08956623825350     21.01518219731184     12.66646119936780
  N   -0.13633637229734     21.90800013355490     12.93990116138072
  C   -0.44476693275510     23.20760027687392     13.06507253634321
  C   -1.75293691852288     23.64942873961254     12.91335346934075
  C   -2.75959030643978     22.73167271678276     12.62912972614127
  N   -3.02049052004699     19.02425498446932     12.12148392905737
  C   -4.18408557531136     18.39311236751333     11.84342698073264
  C   -4.26141911794231     16.94378560199323     11.65702638207619
  C   -5.44618460206198     16.26518796161905     11.35236315555536
  C   -5.41018676223793     14.88443957795085     11.19069400103503
  C   -4.20279000634248     14.21039399942882     11.33388133059454
  N   -3.07334769227659     14.87036822199571     11.62689826917650
  C   -3.09205101123441     16.19739485642437     11.78697579098499
  N   -5.22724329553952     19.20753946937106     11.75690784000751
  N   -4.69448260415656     20.40170548351703     11.99115044709839
  H   -0.79602792350381     19.96738704433217     12.57085382183778
  H   0.37424670607630     23.89402236733674     13.29009162158826
  H   -1.97640862776734     24.71171881997648     13.02007310404948
  H   -3.78937726500105     23.07652440255200     12.51092479483451
  H   -6.38154993632474     16.81813104793985     11.24353758496504
  H   -6.31366581327812     14.32148965288145     10.95219567779727
  H   -4.12774481989113     13.12757244614276     11.21354833265710
  H   -2.14876104276947     16.69418559342846     12.02398622928474
  H   -5.28246714177859     21.23152909577814     11.98481817081756
  C   -0.08010823546230     18.01970970101631     16.97556332957888
  C   0.54672898985879     19.32313479732723     16.76337497168617
  C   0.82050447156086     19.67790069384598     15.44103882800955
  N   1.39476088925648     20.83866389355461     15.11940402017036
  C   1.73054706050438     21.71383810555359     16.07951464824490
  C   1.49111099851614     21.43426001599811     17.41867519118884
  C   0.89455693976014     20.22791524309221     17.77223850480945
  N   -0.34776244904346     17.16176452641772     16.00535358636235
  C   -0.91313133925885     16.11471179551206     16.64938646877256
  C   -1.36590139129499     14.91642832493879     15.94209586242095
  C   -1.95069747469600     13.81418692125749     16.57447156687883
  C   -2.34159793979538     12.72419592696078     15.80377747818548
  C   -2.14592674714041     12.75299573314123     14.42750579204077
  N   -1.58594937521665     13.81523622029017     13.83216140439477
  C   -1.20378330778998     14.86917917363973     14.55952031459972
  N   -1.00856459562006     16.28161959925988     17.96139951684877
  N   -0.48006854601798     17.48585046101838     18.14862200695369
  H   0.56459826187103     18.99224039537918     14.63005497274949
  H   2.19808881662086     22.64735857398601     15.75926273517517
  H   1.77535607022242     22.16343279425822     18.17849512680187
  H   0.70889601887989     20.00457466110616     18.82510495214730
  H   -2.09433249692950     13.81521759485257     17.65699108323159
  H   -2.80000357880947     11.84648800073836     16.26163347593114
  H   -2.43802049434399     11.92022647216463     13.78416206356770
  H   -0.75156699748742     15.71248180438027     14.03350661780834
  H   -0.42316911577168     17.87707593513068     19.08568092515899
  Pd  -1.27416320172164     13.96076166271642     11.83552971675985
  Pd  1.74413001097147     21.17560239723738     13.15151121627244
