522

C    5.59080    14.50715   21.28049 
C    6.07476    13.28846   20.82356 
C    5.19641    12.20779   20.79753 
C    3.86906    12.31094   21.22295 
C    3.07979    11.11781   21.22407 
C    2.40958    10.11980   21.22799 
C    1.55476    8.93655    21.24745 
C    0.25847    8.94297    21.54378 
C    -0.45724   7.69858    21.55402 
N    0.10995    6.56207    21.28279 
C    1.46871    6.48770    20.95886 
C    2.15441    7.65734    20.95635 
C    3.41132    13.53236   21.65600 
C    4.28820    14.61202   21.68183 
C    4.11322    15.92792   22.07356 
C    3.03547    16.65694   22.56710 
C    3.17313    18.00794   22.86084 
C    2.11025    18.87950   23.25093 
C    1.25084    19.65610   23.58564 
C    0.18325    20.56637   23.97855 
C    -1.12124   20.29784   23.78278 
C    -2.09586   21.23686   24.20760 
N    -1.76408   22.35454   24.70600 
C    -0.41347   22.65675   25.03316 
C    0.54586    21.78706   24.62897 
C    4.41003    18.61574   22.67823 
C    5.49369    17.89600   22.19027 
C    5.31611    16.54289   21.88901 
O    6.19232    15.67891   21.41401 
H    7.08895    13.17634   20.50350 
H    5.52370    11.25004   20.44605 
H    -0.24887   9.86714    21.77630 
H    -1.51461   7.73804    21.78731 
H    1.89795    5.51909    20.74094 
H    3.20375    7.67064    20.72992 
H    2.39018    13.60619   21.96721 
H    2.10048    16.20253   22.72836 
H    -1.43703   19.38999   23.28690 
H    -3.13166   21.03040   24.05178 
H    -0.12996   23.56341   25.50601 
H    1.61403    21.96659   24.76908 
H    4.54370    19.66599   22.90652 
H    6.44063    18.36195   22.05286 
C    -1.67618   5.76257    32.86939 
C    -0.64158   5.12694    32.19572 
C    -0.66218   5.14593    30.80342 
C    -1.67974   5.76664    30.07795 
C    -1.64003   5.65576    28.65305 
C    -1.61199   5.56608    27.45541 
C    -1.61553   5.48480    25.99444 
C    -2.49576   6.12004    25.21064 
C    -2.40984   5.93899    23.77827 
N    -1.50468   5.16401    23.20127 
C    -0.57224   4.49164    24.00747 
C    -0.64709   4.65492    25.34855 
C    -2.68854   6.39921    30.76933 
C    -2.66812   6.38096    32.16048 
C    -3.53489   6.91286    33.09939 
C    -4.71322   7.64920    33.02289 
C    -5.36203   8.06398    34.17935 
C    -6.50170   8.92467    34.22206 
C    -7.46424   9.64499    34.31343 
C    -8.62246   10.52651   34.38356 
C    -9.00198   11.32577   33.36842 
C   -10.17060   12.14036   33.51235 
N   -10.90373   12.09796   34.57937 
C   -10.49071   11.30792   35.68599 
C    -9.39628   10.52375   35.58418 
C    -4.83084   7.71140    35.41473 
C    -3.65734   6.97272    35.50227 
C    -3.02108   6.58629    34.31946 
O    -1.90749   5.89621    34.16604 
H    0.14751    4.63463    32.72345 
H    0.11801    4.67475    30.24130 
H    -3.26076   6.75989    25.63297 
H    -3.12794   6.47131    23.17572 
H    0.16028    3.87301    23.50149 
H    0.03837    4.14841    25.99948 
H    -3.46119   6.88201    30.20723 
H    -5.13512   7.90416    32.09351 
H    -8.43972   11.36001   32.44484 
H   -10.46573   12.76669   32.71054 
H   -11.06148   11.30008   36.58810 
H    -9.05356   9.86562    36.38604 
H    -5.32230   8.01716    36.33006 
H    -3.25278   6.70172    36.44861 
C    -4.92707   21.20298   36.95606 
C    -5.40904   20.48145   38.04019 
C    -6.36283   19.49680   37.79505 
C    -6.84598   19.22443   36.51430 
C    -7.88168   18.24671   36.39344 
C    -8.75186   17.42636   36.28420 
C    -9.80974   16.43234   36.10275 
C   -10.27226   16.04657   34.91319 
C   -11.29664   15.10864   34.88972 
N   -11.80049   14.54209   35.90370 
C   -11.42730   14.93081   37.21169 
C   -10.42159   15.85623   37.26385 
C    -6.34552   19.94744   35.45526 
C    -5.39203   20.93089   35.69961 
C    -4.73091   21.80103   34.85020 
C    -4.75506   22.01930   33.47607 
C    -3.93761   22.98427   32.90071 
C    -3.78769   23.20800   31.49750 
C    -3.62702   23.43938   30.32525 
C    -3.45188   23.68260   28.90060 
C    -3.78789   22.78806   27.96286 
C    -3.59960   23.12455   26.64488 
N    -3.14853   24.22461   26.23574 
C    -2.75498   25.22498   27.16965 
C    -2.91029   24.94354   28.49386 
C    -3.11292   23.74621   33.72047 
C    -3.08431   23.53935   35.09408 
C    -3.90692   22.54908   35.63801 
O    -4.03580   22.18017   36.89780 
H    -5.06433   20.67245   39.03427 
H    -6.75858   18.91060   38.59934 
H    -9.86580   16.43989   33.99013 
H   -11.67333   14.78075   33.88517 
H   -11.88427   14.48918   38.07812 
H   -10.03742   16.19611   38.20339 
H    -6.71399   19.72801   34.47454 
H    -5.39005   21.46262   32.84864 
H    -4.19814   21.82050   28.21835 
H    -3.88624   22.40268   25.85546 
H    -2.34669   26.16277   26.88890 
H    -2.64581   25.63932   29.29171 
H    -2.47175   24.50891   33.29596 
H    -2.45404   24.12475   35.72077 
C    -1.72705   4.34892    9.52793  
C    -0.89327   3.49240    10.23473 
C    -0.86740   3.60640    11.62195 
C    -1.63562   4.54548    12.30879 
C    -1.46702   4.62515    13.72881 
C    -1.33524   4.70309    14.92241 
C    -1.20491   4.82436    16.37243 
C    -1.95841   5.62845    17.12734 
C    -1.71764   5.67133    18.53599 
N    -0.81519   4.95387    19.11565 
C    0.02984    4.10532    18.37945 
C    -0.19057   4.06061    17.03894 
C    -2.46141   5.37744    11.58754 
C    -2.48811   5.26339    10.20140 
C    -3.19897   5.95485    9.23594  
C    -4.13143   6.98722    9.27275  
C    -4.69571   7.47016    8.09857  
C    -5.74760   8.43425    8.02481  
C    -6.63146   9.24580    7.90701  
C    -7.70801   10.22242   7.80573  
C    -8.52532   10.52628   8.83205  
C    -9.53203   11.52061   8.64935  
N    -9.65002   12.15379   7.52635  
C    -8.85891   11.82347   6.41936  
C    -7.88551   10.89899   6.55959  
C    -4.29688   6.92438    6.88380  
C    -3.36342   5.89638    6.83556  
C    -2.82830   5.42263    8.03657  
O    -1.94494   4.46181    8.22704  
H    -0.28624   2.76768    9.73512  
H    -0.24458   2.96321    12.20980 
H    -2.73980   6.23529    16.68967 
H    -2.34730   6.32595    19.13363 
H    0.78526    3.53394    18.89529 
H    0.40643    3.43141    16.40885 
H    -3.05478   6.09031    12.12253 
H    -4.42535   7.42150    10.18476 
H    -8.42743   10.03183   9.78887  
H   -10.18347   11.75319   9.46149  
H    -8.98300   12.32600   5.49062  
H    -7.20497   10.62246   5.75146  
H    -4.71745   7.28886    5.95467  
H    -3.05739   5.48082    5.90480  
C    -9.60654   -3.00439   22.43107 
C    -8.32165   -3.17875   22.92790 
C    -7.39341   -2.16603   22.70068 
C    -7.71411   -0.99644   22.00690 
C    -6.63376   -0.10334   21.70536 
C    -5.77767   0.74201    21.59218 
C    -4.73066   1.70611    21.25584 
C    -4.95375   2.89065    20.68165 
C    -3.83337   3.77232    20.45293 
N    -2.60105   3.48162    20.83214 
C    -2.33568   2.23662    21.41304 
C    -3.37979   1.40285    21.62788 
C    -8.99196   -0.85186   21.51924 
C    -9.92009   -1.86308   21.74688 
C   -11.25150   -1.98508   21.38894 
C   -12.14691   -1.17533   20.69675 
C   -13.46257   -1.57982   20.50747 
C   -14.49518   -0.78161   19.92608 
C   -15.40134   -0.15154   19.44068 
C   -16.47301   0.64480    18.85730 
C   -16.41120   1.98410    18.73388 
C   -17.50420   2.68387    18.14264 
N   -18.57718   2.05572    17.81028 
C   -18.63743   0.65345    17.79751 
C   -17.62747   -0.03967   18.36684 
C   -13.86563   -2.81661   20.99797 
C   -12.97851   -3.63469   21.68658 
C   -11.66693   -3.18981   21.87390 
O   -10.67021   -3.78994   22.49540 
H    -8.04733   -4.06104   23.46631 
H    -6.39145   -2.25397   23.07089 
H    -5.95126   3.18700    20.38671 
H    -4.04939   4.72319    19.98716 
H    -1.30806   2.02282    21.67882 
H    -3.22596   0.44692    22.09071 
H    -9.22922   0.04452    20.98580 
H   -11.84738   -0.24658   20.30366 
H   -15.55890   2.54001    19.10142 
H   -17.45554   3.74215    18.04935 
H   -19.49859   0.13586    17.44443 
H   -17.63889   -1.12556   18.48410 
H   -14.88412   -3.15669   20.85700 
H   -13.28771   -4.58222   22.05975 
C    -1.40529   21.60395   12.77236 
C    -0.58640   22.27510   13.67079 
C    -0.99411   22.33962   15.00088 
C    -2.18587   21.76650   15.44770 
C    -2.54153   21.96322   16.81830 
C    -2.84544   22.12519   17.96894 
C    -3.25454   22.29406   19.36435 
C    -4.33134   21.71141   19.90704 
C    -4.64670   21.98770   21.31118 
N    -3.87353   22.80242   22.12610 
C    -2.78135   23.39735   21.49949 
C    -2.48874   23.15633   20.20550 
C    -2.97481   21.09811   14.53916 
C    -2.56761   21.03289   13.21027 
C    -3.14947   20.44870   12.09853 
C    -4.31723   19.72255   11.88487 
C    -4.62691   19.24151   10.61875 
C    -5.72680   18.38384   10.30875 
C    -6.64019   17.66270   9.99337  
C    -7.75111   16.78232   9.65296  
C    -8.41941   16.05167   10.56526 
C    -9.52789   15.21671   10.13171 
N    -9.90984   15.10685   8.82388  
C    -9.19532   15.93349   7.92481  
C    -8.16085   16.71768   8.28858  
C    -3.76587   19.51723   9.56273  
C    -2.59962   20.24505   9.76432  
C    -2.30997   20.69953   11.05379 
O    -1.26934   21.39351   11.47238 
H    0.32819    22.73192   13.35712 
H    -0.39160   22.84108   15.73067 
H    -4.96079   21.04886   19.32388 
H    -5.51130   21.48359   21.70088 
H    -2.20950   24.04607   22.15664 
H    -1.63799   23.62173   19.74478 
H    -3.88290   20.65295   14.88992 
H    -4.98611   19.52546   12.67260 
H    -8.13211   16.06710   11.60976 
H   -10.02750   14.64797   10.86846 
H    -9.49306   15.88733   6.90262  
H    -7.59495   17.32472   7.57584  
H    -3.98930   19.15875   8.56548  
H    -1.94235   20.45723   8.95459  
C   -19.77229   2.51210    29.69870 
C   -20.31939   1.58138    28.82548 
C   -20.27214   1.86185    27.46219 
C   -19.70883   3.03676    26.95733 
C   -19.79349   3.24304    25.54359 
C   -19.85674   3.42882    24.35567 
C   -19.89886   3.71004    22.92270 
C   -19.31451   4.76213    22.33668 
C   -19.45442   4.92346    20.88895 
N   -20.14617   4.03886    20.08222 
C   -20.77874   2.99202    20.75179 
C   -20.64534   2.82861    22.08440 
C   -19.16358   3.93643    27.84297 
C   -19.21004   3.65638    29.20526 
C   -18.76023   4.36666    30.30482 
C   -18.10686   5.58406    30.47090 
C   -17.76320   6.03270    31.74014 
C   -16.98543   7.19805    32.02030 
C   -16.33629   8.17156    32.31128 
C   -15.53930   9.35177    32.62268 
C   -14.75112   9.96803    31.72177 
C   -14.00240   11.14601   32.12565 
N   -14.03259   11.64776   33.40316 
C   -14.92668   10.99356   34.27375 
C   -15.62356   9.88826    33.94135 
C   -18.10365   5.25970    32.84437 
C   -18.75991   4.04484    32.68995 
C   -19.07569   3.61534    31.39805 
O   -19.68267   2.50714    31.01956 
H   -20.76625   0.67781    29.18240 
H   -20.67580   1.16971    26.75065 
H   -18.73584   5.47314    22.91423 
H   -18.95734   5.77705    20.46469 
H   -21.32967   2.32562    20.09569 
H   -21.11684   2.00081    22.58025 
H   -18.72463   4.82894    27.44886 
H   -17.86247   6.18671    29.64393 
H   -14.65528   9.58652    30.71237 
H   -13.39506   11.61201   31.39465 
H   -14.98690   11.38266   35.26288 
H   -16.27256   9.36048    34.64634 
H   -17.85248   5.59161    33.84420 
H   -19.02185   3.45507    33.53626 
C   -24.57225   16.38215   30.83481 
C   -25.59800   16.76415   29.98035 
C   -25.26560   17.53306   28.86779 
C   -23.95444   17.93162   28.59616 
C   -23.75274   18.78745   27.46563 
C   -23.56598   19.50735   26.51852 
C   -23.28777   20.37665   25.38004 
C   -22.06080   20.74127   24.99164 
C   -21.93208   21.62803   23.86207 
N   -22.97722   22.03991   23.17842 
C   -24.26274   21.73485   23.58922 
C   -24.39330   20.90870   24.64497 
C   -22.95567   17.53095   29.45272 
C   -23.28724   16.76227   30.56423 
C   -22.51005   16.23470   31.58081 
C   -21.14968   16.25970   31.87307 
C   -20.65659   15.60085   32.99256 
C   -19.27375   15.45436   33.32071 
C   -18.12208   15.30451   33.64446 
C   -16.71897   15.13598   33.99717 
C   -15.71337   15.30490   33.11677 
C   -14.37159   15.13975   33.55053 
N   -14.14416   14.75874   34.73630 
C   -15.12003   14.65867   35.72624 
C   -16.40237   14.80670   35.35163 
C   -21.54501   14.93693   33.83080 
C   -22.90557   14.90955   33.55053 
C   -23.36577   15.56835   32.40715 
O   -24.59841   15.66603   31.94801 
H   -26.61251   16.48208   30.16664 
H   -26.02329   17.84544   28.17721 
H   -21.18038   20.37463   25.50302 
H   -20.92504   21.87991   23.55490 
H   -25.08277   22.14156   23.00829 
H   -25.36552   20.61156   24.98468 
H   -21.95287   17.83199   29.23352 
H   -20.47108   16.77603   31.25686 
H   -15.91204   15.54241   32.08118 
H   -13.57424   15.25213   32.85383 
H   -14.88654   14.40599   36.73936 
H   -17.24433   14.68069   36.03427 
H   -21.18533   14.42197   34.71306 
H   -23.58488   14.40266   34.19416 
C   -15.06371   30.28516   23.49319 
C   -16.42671   30.51708   23.36380 
C   -17.25016   29.42697   23.09377 
C   -16.75160   28.13226   22.94271 
C   -17.67620   27.09952   22.58926 
C   -18.45208   26.23157   22.29244 
C   -19.36468   25.14553   21.93410 
C   -18.99780   23.86023   21.85229 
C   -19.98313   22.88210   21.46159 
N   -21.23186   23.19138   21.18441 
C   -21.64288   24.53262   21.25245 
C   -20.72219   25.45814   21.61341 
C   -15.39880   27.92679   23.08670 
C   -14.57594   29.01538   23.35698 
C   -13.20710   29.10973   23.53884 
C   -12.16269   28.19009   23.52978 
C   -10.85775   28.60247   23.76951 
C    -9.73088   27.73494   23.90760 
C    -8.74768   27.04779   24.02964 
C    -7.58415   26.18340   24.18096 
C    -7.67375   24.86700   24.45118 
C    -6.46651   24.08611   24.54886 
N    -5.28582   24.63747   24.34344 
C    -5.18452   26.00576   24.12703 
C    -6.29082   26.76528   24.01752 
C   -10.60658   29.95127   23.99374 
C   -11.64143   30.87833   24.00053 
C   -12.94439   30.42708   23.77280 
O   -14.06649   31.11970   23.74159 
H   -16.83684   31.49951   23.46470 
H   -18.30841   29.55644   22.99231 
H   -17.98388   23.55173   22.07697 
H   -19.66173   21.85042   21.42208 
H   -22.67588   24.75173   21.01461 
H   -20.98572   26.49549   21.67397 
H   -15.02484   26.92936   22.97953 
H   -12.33850   27.17018   23.34103 
H    -8.63600   24.39050   24.58706 
H    -6.55507   23.05080   24.76669 
H    -4.22172   26.44415   24.00348 
H    -6.25829   27.83661   23.80386 
H    -9.59683   30.29779   24.17609 
H   -11.44754   31.91089   24.17038 
C   -29.42585   12.96804   17.55965 
C   -29.90490   14.26697   17.66610 
C   -29.03350   15.24599   18.13555 
C   -27.71980   14.96520   18.50506 
C   -26.95340   16.04773   19.04067 
C   -26.25226   16.90851   19.50178 
C   -25.44208   17.98789   20.06413 
C   -24.14380   17.83141   20.36794 
C   -23.42979   18.94299   20.92990 
N   -23.99060   20.10215   21.14005 
C   -25.34873   20.29982   20.87791 
C   -26.02858   19.25722   20.34486 
C   -27.26336   13.66988   18.38081 
C   -28.13401   12.69079   17.91077 
C   -27.96162   11.33448   17.69507 
C   -26.89314   10.45664   17.85096 
C   -27.03028   9.11343    17.52314 
C   -25.97309   8.15231    17.52391 
C   -25.11817   7.30219    17.51070 
C   -24.05574   6.30487    17.49731 
C   -22.74848   6.62286    17.46298 
C   -21.77566   5.58053    17.48940 
N   -22.11129   4.33848    17.60253 
C   -23.47479   3.96046    17.54327 
C   -24.42819   4.92577    17.53588 
C   -28.25798   8.65347    17.06079 
C   -29.33242   9.52058    16.90561 
C   -29.15519   10.86875   17.22844 
O   -30.02352   11.85878   17.15340 
H   -30.91066   14.51365   17.39938 
H   -29.35672   16.26310   18.22858 
H   -23.63138   16.89294   20.18467 
H   -22.37761   18.79887   21.15087 
H   -25.77598   21.27111   21.08510 
H   -27.06763   19.34743   20.10578 
H   -26.25084   13.46040   18.65687 
H   -25.96574   10.78976   18.21933 
H   -22.42501   7.65503    17.42926 
H   -20.74100   5.83444    17.46062 
H   -23.76629   2.94028    17.57707 
H   -25.49898   4.70925    17.55711 
H   -28.39127   7.60950    16.80537 
H   -30.27238   9.16682    16.55347 
C   -19.64595   23.40900   9.96706  
C   -20.41960   24.29629   10.70344 
C   -20.73777   23.95039   12.01415 
C   -20.31698   22.75555   12.59690 
C   -20.77265   22.47619   13.92277 
C   -21.13681   22.21017   15.03568 
C   -21.57936   21.88405   16.39208 
C   -21.16072   20.80253   17.06413 
C   -21.68107   20.56498   18.39547 
N   -22.54407   21.38489   18.98658 
C   -23.01553   22.49487   18.28171 
C   -22.53465   22.72395   17.04023 
C   -19.54187   21.89608   11.84907 
C   -19.22307   22.24161   10.53920 
C   -18.48491   21.58563   9.56937  
C   -17.79568   20.37739   9.52824  
C   -17.11742   19.99105   8.37887  
C   -16.27840   18.84027   8.26395  
C   -15.56276   17.88171   8.11313  
C   -14.69709   16.71816   7.97268  
C   -14.17542   16.05771   9.02371  
C   -13.34892   14.91911   8.79172  
N   -13.04291   14.55352   7.60188  
C   -13.63875   15.15416   6.47150  
C   -14.41653   16.24523   6.65347  
C   -17.15768   20.81719   7.26151  
C   -17.84646   22.02349   7.29048  
C   -18.50377   22.38965   8.46826  
O   -19.20409   23.47846   8.72102  
H   -20.76514   25.21650   10.28235 
H   -21.32657   24.60647   12.62243 
H   -20.43732   20.11967   16.63227 
H   -21.30551   19.69752   18.91436 
H   -23.73260   23.12741   18.79411 
H   -22.86356   23.57316   16.47559 
H   -19.21375   20.98447   12.30407 
H   -17.77551   19.73492   10.36107 
H   -14.35669   16.38919   10.03736 
H   -12.93247   14.40067   9.62447  
H   -13.42614   14.81688   5.48649  
H   -14.85792   16.80815   5.82815  
H   -16.64241   20.53437   6.35190  
H   -17.87822   22.65410   6.43379  
C   -17.77863   4.46448    5.28325  
C   -17.10666   5.01940    4.20219  
C   -16.25934   6.09751    4.44655  
C   -16.07657   6.63296    5.72525  
C   -15.24321   7.78973    5.83916  
C   -14.54443   8.76202    5.94906  
C   -13.70146   9.94196    6.12573  
C   -13.39617   10.46607   7.31137  
C   -12.60518   11.60615   7.33104  
N   -12.14192   12.21301   6.32716  
C   -12.40107   11.72099   5.01234  
C   -13.18707   10.60312   4.96164  
C   -16.74586   6.05796    6.77883  
C   -17.59189   4.98058    6.53531  
C   -18.38359   4.22500    7.38269  
C   -18.62769   4.24204    8.75261  
C   -19.48813   3.31478    9.32726  
C   -19.71544   3.15895    10.72925 
C   -19.94483   2.98785    11.90043 
C   -20.18851   2.80479    13.32421 
C   -19.35991   3.26524    14.27075 
C   -19.68583   3.04056    15.58924 
N   -20.72982   2.46562    15.99046 
C   -21.65958   1.94585    15.03935 
C   -21.37440   2.10894    13.72017 
C   -20.12140   2.38495    8.51055  
C   -19.88810   2.36204    7.14108  
C   -19.00376   3.29818    6.59810  
O   -18.63231   3.45431    5.34214  
H   -17.23338   4.63719    3.21154  
H   -15.71526   6.55347    3.64374  
H   -13.75265   10.02819   8.23482  
H   -12.34875   12.03860   8.33478  
H   -12.01001   12.22056   4.14252  
H   -13.45788   10.16396   4.02345  
H   -16.59357   6.46718    7.75541  
H   -18.16970   4.95401    9.37722  
H   -18.45204   3.79832    14.02185 
H   -19.04216   3.46513    16.36915 
H   -22.54047   1.41918    15.31566 
H   -22.01636   1.74419    12.91677 
H   -20.80160   1.65649    8.93438  
H   -20.37518   1.65099    6.51666  
Pd   -3.45191   23.62653   24.48855 
Pd   -1.11563   5.02790    21.07725 
Pd  -12.65103   13.41503   34.77851 
Pd  -20.40884   3.20035    17.70314 
Pd  -22.71090   21.68862   21.15341 
Pd  -11.28355   13.33797   7.48622  
