14
frame 0 | Written by MDAnalysis XYZWriter (release 2.3.0)
       C     2.06000   11.60000   12.45000
       C     3.12000   12.46000   12.79000
       C     2.25000   10.21000   12.36000
       C     1.17000    9.41000   12.03000
       C    -0.06000    9.99000   11.80000
       N    -0.24000   11.31000   11.89000
       C     0.78000   12.10000   12.20000
       H     3.22000    9.78000   12.54000
       H     1.29000    8.34000   11.95000
       H    -0.93000    9.39000   11.53000
       H     0.59000   13.17000   12.27000
       H     3.65590   12.05491   13.65859
       H     3.81045   12.54354   11.94032
       H     2.72110   13.45286   13.03651

