57
Frame 0 | Written By Mdanalysis Xyzwriter (Release 2.3.0)
      Pd    -2.05000   12.12000   11.55000
       C     2.06000   11.60000   12.45000
       C     3.12000   12.46000   12.79000
       C     2.25000   10.21000   12.36000
       C     1.17000    9.41000   12.03000
       C    -0.06000    9.99000   11.80000
       N    -0.24000   11.31000   11.89000
       C     0.78000   12.10000   12.20000
       H     3.22000    9.78000   12.54000
       H     1.29000    8.34000   11.95000
       H    -0.93000    9.39000   11.53000
       H     0.59000   13.17000   12.27000
       H     3.65600   12.05500   13.65900
       H     3.81000   12.54400   11.94000
       H     2.72100   13.45300   13.03700
       C    -2.45000   12.92000   15.70000
       C    -2.13000   14.00000   16.53000
       C    -3.06000   11.76000   16.20000
       C    -3.35000   10.72000   15.34000
       C    -3.05000   10.86000   13.99000
       N    -2.48000   11.96000   13.50000
       C    -2.18000   12.97000   14.33000
       H    -3.28000   11.68000   17.26000
       H    -3.81000    9.82000   15.69000
       H    -3.27000   10.06000   13.28000
       H    -1.72000   13.85000   13.89000
       H    -1.14400   13.83300   16.98400
       H    -2.10800   14.92400   15.93700
       H    -2.88600   14.09100   17.32100
       C    -0.69000   13.60000    7.82000
       C    -0.06000   14.78000    7.39000
       C    -1.02000   12.58000    6.91000
       C    -1.64000   11.44000    7.39000
       C    -1.92000   11.33000    8.75000
       N    -1.61000   12.30000    9.61000
       C    -1.01000   13.41000    9.16000
       H    -0.79000   12.69000    5.87000
       H    -1.91000   10.63000    6.72000
       H    -2.41000   10.45000    9.16000
       H    -0.78000   14.17000    9.90000
       H     0.98000   14.78900    7.74200
       H    -0.07500   14.82400    6.29300
       H    -0.59200   15.64900    7.79900
       C    -5.19000   14.92000   11.05000
       C    -5.29000   16.32000   11.10000
       C    -6.31000   14.11000   10.75000
       C    -6.15000   12.74000   10.71000
       C    -4.90000   12.19000   10.95000
       N    -3.84000   12.95000   11.22000
       C    -3.97000   14.27000   11.27000
       H    -7.27000   14.57000   10.57000
       H    -6.99000   12.10000   10.49000
       H    -4.75000   11.11000   10.92000
       H    -3.08000   14.86000   11.50000
       H    -4.28600   16.76100   11.03900
       H    -5.89700   16.67400   10.25600
       H    -5.76500   16.62000   12.04400

