45
Frame 0 | Written By Mdanalysis Xyzwriter (Release 2.4.2)
      Zn     2.45300    8.67200    3.00400
       H     4.75900    9.56100    5.04700
       C     4.10400   10.21800    4.98500
       N     2.99500   10.15100    4.20100
       H     0.91596   12.79548    3.80800
       H     0.98200   11.25100    2.77100
       H     0.19300   11.20700    4.45600
       H     4.75996   11.66048    6.25900
       C     4.10396   11.38548    5.65900
       N     2.99596   12.09848    5.32500
       C     2.35496   11.30948    4.44300
       C     1.03296   11.66148    3.83300
       H    -0.40300    8.17100    1.63400
       C    -0.44400    8.00600    2.54900
       N     0.59700    8.12100    3.41500
       H     0.83800    6.79000    6.36400
       H     0.35600    8.57200    6.60500
       H     1.91300    8.14600    5.67800
       H    -2.38300    7.47100    2.84700
       C    -1.54500    7.61700    3.22300
       N    -1.23900    7.47200    4.54000
       C     0.06700    7.79100    4.60700
       C     0.84000    7.82700    5.89000
       H    -1.97300    4.35000   10.80300
       C    -2.11400    3.60500   11.34200
       N    -2.35400    2.34500   10.89100
       H    -3.33004   -0.15461   12.92801
       H    -1.70604   -0.39961   12.05202
       H    -3.26900   -0.16400   11.06800
       H    -1.97304    4.35139   13.22801
       C    -2.11404    3.60639   12.69001
       N    -2.35304    2.34539   13.14102
       C    -2.48804    1.61839   12.01602
       C    -2.71104    0.13639   12.01602
       H     4.50200    4.26700    4.12300
       C     4.46100    5.14100    3.80800
       N     5.50300    5.83400    3.27600
       H     5.40200    9.13500    2.69400
       H     5.56500    8.08100    1.16800
       H     6.85700    7.99000    2.50400
       H     2.52200    5.66700    4.12300
       C     3.36000    5.92000    3.80800
       N     3.66600    7.13300    3.27600
       C     4.97200    7.03200    2.96600
       C     5.74500    8.12500    2.29300

