57
Frame 0 | Written By Mdanalysis Xyzwriter (Release 2.4.2)
      Pd    12.86000   24.45000   14.93000
       N    11.54000   23.88000   16.35000
       C    11.20000   24.76000   17.31000
       H    11.60000   25.62000   17.32000
       C    10.28000   24.44000   18.30000
       H    10.06000   25.07000   18.98000
       C     9.66000   23.19000   18.26000
       H     9.00000   22.97000   18.91000
       C    10.02000   22.26000   17.29000
       C    10.97000   22.67000   16.32000
       H    11.20000   22.07000   15.62000
       C     9.42000   20.97000   17.22000
       H    10.12596   20.26203   16.76597
       H     9.16173   20.63108   18.23197
       H     8.50980   21.02243   16.60808
       N    11.30000   24.99000   13.76000
       C    10.65000   26.15000   13.98000
       H    10.93000   26.71000   14.70000
       C     9.58000   26.55000   13.20000
       H     9.13000   27.37000   13.37000
       C     9.16000   25.75000   12.17000
       H     8.42000   26.01000   11.63000
       C     9.82000   24.54000   11.91000
       C    10.89000   24.21000   12.73000
       H    11.35000   23.40000   12.56000
       C     9.44000   23.66000   10.86000
       H     8.93114   22.78375   11.28298
       H     8.76054   24.18170   10.17311
       H    10.33484   23.33487   10.31293
       N    14.39000   23.97000   16.16000
       C    15.08000   24.91000   16.81000
       H    14.83000   25.82000   16.70000
       C    16.13000   24.61000   17.64000
       H    16.61000   25.31000   18.08000
       C    16.50000   23.29000   17.84000
       H    17.22000   23.07000   18.41000
       C    15.78000   22.28000   17.17000
       C    14.72000   22.68000   16.35000
       H    14.21000   22.01000   15.91000
       C    16.06000   20.89000   17.36000
       H    17.12115   20.76131   17.61128
       H    15.44026   20.50035   18.17838
       H    15.83353   20.34142   16.43618
       N    14.19000   25.09000   13.55000
       C    14.63000   26.35000   13.58000
       H    14.26000   26.96000   14.21000
       C    15.62000   26.78000   12.73000
       H    15.92000   27.68000   12.77000
       C    16.18000   25.93000   11.81000
       H    16.85000   26.23000   11.21000
       C    15.72000   24.58000   11.79000
       C    14.71000   24.22000   12.66000
       H    14.38000   23.33000   12.64000
       C    16.28000   23.61000   10.89000
       H    17.36123   23.53032   11.06417
       H    15.80833   22.63388   11.06426
       H    16.09844   23.92451    9.85377

