28
frame 0 | Written by MDAnalysis XYZWriter (release 2.4.2)
       C    -3.70227   -0.53150   -0.77828
       C    -3.17878    0.75966   -0.94175
       C    -1.83792    1.01391   -0.59627
       N    -1.03764   -0.00123   -0.13883
       C    -2.88281   -1.52278   -0.20797
       C    -1.54426   -1.20537    0.11588
       H    -1.44175    2.00572   -0.75467
       H    -4.73598   -0.72506   -1.05201
       H    -3.80185    1.55360   -1.34583
       C    -3.27125   -2.82948    0.08421
       C    -2.41141   -3.70226    0.71619
       C    -1.16083   -3.35439    1.16997
       C    -0.72309   -2.07982    0.84141
       N     0.50170   -1.65586    1.23398
       C     1.32728   -2.44431    1.97513
       C    -0.33755   -4.19851    1.92230
       C     0.90760   -3.73054    2.34811
       H     2.30938   -2.09255    2.24881
       H    -0.65534   -5.19731    2.19749
       H     1.54554   -4.37311    2.93896
       N    -4.43162   -3.45547   -0.17033
       C    -4.17744   -4.71378    0.27259
       N    -2.97261   -4.88671    0.80818
       C    -5.02366   -5.83590    0.14290
       H    -2.57876   -5.77268    1.19118
       H    -4.54874   -6.57892   -0.51140
       H    -5.19892   -6.27844    1.13240
       H    -5.98168   -5.52337   -0.29321

